
---------- Begin Simulation Statistics ----------
sim_seconds                                  2.444146                       # Number of seconds simulated
sim_ticks                                2444146476500                       # Number of ticks simulated
final_tick                               2444146476500                       # Number of ticks from beginning of simulation (restored from checkpoints and never reset)
sim_freq                                 1000000000000                       # Frequency of simulated ticks
host_inst_rate                                 197082                       # Simulator instruction rate (inst/s)
host_op_rate                                   197082                       # Simulator op (including micro ops) rate (op/s)
host_tick_rate                             5262817891                       # Simulator tick rate (ticks/s)
host_mem_usage                                 738152                       # Number of bytes of host memory used
host_seconds                                   464.42                       # Real time elapsed on the host
sim_insts                                    91528537                       # Number of instructions simulated
sim_ops                                      91528537                       # Number of ops (including micro ops) simulated
system.voltage_domain.voltage                       1                       # Voltage in Volts
system.clk_domain.clock                          1000                       # Clock period in ticks
system.mem_ctrls.pwrStateResidencyTicks::UNDEFINED 2444146476500                       # Cumulative time (in ticks) in various power states
system.mem_ctrls.bytes_read::cpu.inst         1267264                       # Number of bytes read from this memory
system.mem_ctrls.bytes_read::cpu.data        23202432                       # Number of bytes read from this memory
system.mem_ctrls.bytes_read::tsunami.ide         4032                       # Number of bytes read from this memory
system.mem_ctrls.bytes_read::total           24473728                       # Number of bytes read from this memory
system.mem_ctrls.bytes_inst_read::cpu.inst      1267264                       # Number of instructions bytes read from this memory
system.mem_ctrls.bytes_inst_read::total       1267264                       # Number of instructions bytes read from this memory
system.mem_ctrls.bytes_written::writebacks     18756000                       # Number of bytes written to this memory
system.mem_ctrls.bytes_written::total        18756000                       # Number of bytes written to this memory
system.mem_ctrls.num_reads::cpu.inst            39602                       # Number of read requests responded to by this memory
system.mem_ctrls.num_reads::cpu.data           725076                       # Number of read requests responded to by this memory
system.mem_ctrls.num_reads::tsunami.ide           126                       # Number of read requests responded to by this memory
system.mem_ctrls.num_reads::total              764804                       # Number of read requests responded to by this memory
system.mem_ctrls.num_writes::writebacks        586125                       # Number of write requests responded to by this memory
system.mem_ctrls.num_writes::total             586125                       # Number of write requests responded to by this memory
system.mem_ctrls.bw_read::cpu.inst             518489                       # Total read bandwidth from this memory (bytes/s)
system.mem_ctrls.bw_read::cpu.data            9493061                       # Total read bandwidth from this memory (bytes/s)
system.mem_ctrls.bw_read::tsunami.ide            1650                       # Total read bandwidth from this memory (bytes/s)
system.mem_ctrls.bw_read::total              10013200                       # Total read bandwidth from this memory (bytes/s)
system.mem_ctrls.bw_inst_read::cpu.inst        518489                       # Instruction read bandwidth from this memory (bytes/s)
system.mem_ctrls.bw_inst_read::total           518489                       # Instruction read bandwidth from this memory (bytes/s)
system.mem_ctrls.bw_write::writebacks         7673845                       # Write bandwidth from this memory (bytes/s)
system.mem_ctrls.bw_write::total              7673845                       # Write bandwidth from this memory (bytes/s)
system.mem_ctrls.bw_total::writebacks         7673845                       # Total bandwidth to/from this memory (bytes/s)
system.mem_ctrls.bw_total::cpu.inst            518489                       # Total bandwidth to/from this memory (bytes/s)
system.mem_ctrls.bw_total::cpu.data           9493061                       # Total bandwidth to/from this memory (bytes/s)
system.mem_ctrls.bw_total::tsunami.ide           1650                       # Total bandwidth to/from this memory (bytes/s)
system.mem_ctrls.bw_total::total             17687045                       # Total bandwidth to/from this memory (bytes/s)
system.mem_ctrls.readReqs                      764804                       # Number of read requests accepted
system.mem_ctrls.writeReqs                     586125                       # Number of write requests accepted
system.mem_ctrls.readBursts                    764804                       # Number of DRAM read bursts, including those serviced by the write queue
system.mem_ctrls.writeBursts                   586125                       # Number of DRAM write bursts, including those merged in the write queue
system.mem_ctrls.bytesReadDRAM               48904896                       # Total number of bytes read from DRAM
system.mem_ctrls.bytesReadWrQ                   42560                       # Total number of bytes read from write queue
system.mem_ctrls.bytesWritten                28611968                       # Total number of bytes written to DRAM
system.mem_ctrls.bytesReadSys                24473728                       # Total read bytes from the system interface side
system.mem_ctrls.bytesWrittenSys             18756000                       # Total written bytes from the system interface side
system.mem_ctrls.servicedByWrQ                    665                       # Number of DRAM read bursts serviced by the write queue
system.mem_ctrls.mergedWrBursts                139043                       # Number of DRAM write bursts merged with an existing one
system.mem_ctrls.neitherReadNorWriteReqs            0                       # Number of requests that are neither read nor write
system.mem_ctrls.perBankRdBursts::0             47027                       # Per bank write bursts
system.mem_ctrls.perBankRdBursts::1             46152                       # Per bank write bursts
system.mem_ctrls.perBankRdBursts::2             46608                       # Per bank write bursts
system.mem_ctrls.perBankRdBursts::3             46759                       # Per bank write bursts
system.mem_ctrls.perBankRdBursts::4             48210                       # Per bank write bursts
system.mem_ctrls.perBankRdBursts::5             48279                       # Per bank write bursts
system.mem_ctrls.perBankRdBursts::6             46729                       # Per bank write bursts
system.mem_ctrls.perBankRdBursts::7             47732                       # Per bank write bursts
system.mem_ctrls.perBankRdBursts::8             47291                       # Per bank write bursts
system.mem_ctrls.perBankRdBursts::9             45664                       # Per bank write bursts
system.mem_ctrls.perBankRdBursts::10            47663                       # Per bank write bursts
system.mem_ctrls.perBankRdBursts::11            51732                       # Per bank write bursts
system.mem_ctrls.perBankRdBursts::12            50061                       # Per bank write bursts
system.mem_ctrls.perBankRdBursts::13            48547                       # Per bank write bursts
system.mem_ctrls.perBankRdBursts::14            47732                       # Per bank write bursts
system.mem_ctrls.perBankRdBursts::15            47953                       # Per bank write bursts
system.mem_ctrls.perBankWrBursts::0             27594                       # Per bank write bursts
system.mem_ctrls.perBankWrBursts::1             27991                       # Per bank write bursts
system.mem_ctrls.perBankWrBursts::2             27390                       # Per bank write bursts
system.mem_ctrls.perBankWrBursts::3             28389                       # Per bank write bursts
system.mem_ctrls.perBankWrBursts::4             28552                       # Per bank write bursts
system.mem_ctrls.perBankWrBursts::5             29006                       # Per bank write bursts
system.mem_ctrls.perBankWrBursts::6             27847                       # Per bank write bursts
system.mem_ctrls.perBankWrBursts::7             27835                       # Per bank write bursts
system.mem_ctrls.perBankWrBursts::8             26849                       # Per bank write bursts
system.mem_ctrls.perBankWrBursts::9             26793                       # Per bank write bursts
system.mem_ctrls.perBankWrBursts::10            27107                       # Per bank write bursts
system.mem_ctrls.perBankWrBursts::11            29095                       # Per bank write bursts
system.mem_ctrls.perBankWrBursts::12            28184                       # Per bank write bursts
system.mem_ctrls.perBankWrBursts::13            27456                       # Per bank write bursts
system.mem_ctrls.perBankWrBursts::14            28298                       # Per bank write bursts
system.mem_ctrls.perBankWrBursts::15            28676                       # Per bank write bursts
system.mem_ctrls.numRdRetry                         0                       # Number of times read queue was full causing retry
system.mem_ctrls.numWrRetry                        58                       # Number of times write queue was full causing retry
system.mem_ctrls.totGap                  2444142898500                       # Total gap between requests
system.mem_ctrls.readPktSize::0                     0                       # Read request sizes (log2)
system.mem_ctrls.readPktSize::1                     0                       # Read request sizes (log2)
system.mem_ctrls.readPktSize::2                     0                       # Read request sizes (log2)
system.mem_ctrls.readPktSize::3                     0                       # Read request sizes (log2)
system.mem_ctrls.readPktSize::4                     0                       # Read request sizes (log2)
system.mem_ctrls.readPktSize::5                764804                       # Read request sizes (log2)
system.mem_ctrls.readPktSize::6                     0                       # Read request sizes (log2)
system.mem_ctrls.writePktSize::0                    0                       # Write request sizes (log2)
system.mem_ctrls.writePktSize::1                    0                       # Write request sizes (log2)
system.mem_ctrls.writePktSize::2                    0                       # Write request sizes (log2)
system.mem_ctrls.writePktSize::3                    0                       # Write request sizes (log2)
system.mem_ctrls.writePktSize::4                    0                       # Write request sizes (log2)
system.mem_ctrls.writePktSize::5               586125                       # Write request sizes (log2)
system.mem_ctrls.writePktSize::6                    0                       # Write request sizes (log2)
system.mem_ctrls.rdQLenPdf::0                  764015                       # What read queue length does an incoming req see
system.mem_ctrls.rdQLenPdf::1                       4                       # What read queue length does an incoming req see
system.mem_ctrls.rdQLenPdf::2                       4                       # What read queue length does an incoming req see
system.mem_ctrls.rdQLenPdf::3                       4                       # What read queue length does an incoming req see
system.mem_ctrls.rdQLenPdf::4                       7                       # What read queue length does an incoming req see
system.mem_ctrls.rdQLenPdf::5                       9                       # What read queue length does an incoming req see
system.mem_ctrls.rdQLenPdf::6                       8                       # What read queue length does an incoming req see
system.mem_ctrls.rdQLenPdf::7                      10                       # What read queue length does an incoming req see
system.mem_ctrls.rdQLenPdf::8                      25                       # What read queue length does an incoming req see
system.mem_ctrls.rdQLenPdf::9                      17                       # What read queue length does an incoming req see
system.mem_ctrls.rdQLenPdf::10                      6                       # What read queue length does an incoming req see
system.mem_ctrls.rdQLenPdf::11                     10                       # What read queue length does an incoming req see
system.mem_ctrls.rdQLenPdf::12                      4                       # What read queue length does an incoming req see
system.mem_ctrls.rdQLenPdf::13                      3                       # What read queue length does an incoming req see
system.mem_ctrls.rdQLenPdf::14                      2                       # What read queue length does an incoming req see
system.mem_ctrls.rdQLenPdf::15                      2                       # What read queue length does an incoming req see
system.mem_ctrls.rdQLenPdf::16                      3                       # What read queue length does an incoming req see
system.mem_ctrls.rdQLenPdf::17                      3                       # What read queue length does an incoming req see
system.mem_ctrls.rdQLenPdf::18                      1                       # What read queue length does an incoming req see
system.mem_ctrls.rdQLenPdf::19                      1                       # What read queue length does an incoming req see
system.mem_ctrls.rdQLenPdf::20                      1                       # What read queue length does an incoming req see
system.mem_ctrls.rdQLenPdf::21                      0                       # What read queue length does an incoming req see
system.mem_ctrls.rdQLenPdf::22                      0                       # What read queue length does an incoming req see
system.mem_ctrls.rdQLenPdf::23                      0                       # What read queue length does an incoming req see
system.mem_ctrls.rdQLenPdf::24                      0                       # What read queue length does an incoming req see
system.mem_ctrls.rdQLenPdf::25                      0                       # What read queue length does an incoming req see
system.mem_ctrls.rdQLenPdf::26                      0                       # What read queue length does an incoming req see
system.mem_ctrls.rdQLenPdf::27                      0                       # What read queue length does an incoming req see
system.mem_ctrls.rdQLenPdf::28                      0                       # What read queue length does an incoming req see
system.mem_ctrls.rdQLenPdf::29                      0                       # What read queue length does an incoming req see
system.mem_ctrls.rdQLenPdf::30                      0                       # What read queue length does an incoming req see
system.mem_ctrls.rdQLenPdf::31                      0                       # What read queue length does an incoming req see
system.mem_ctrls.wrQLenPdf::0                       1                       # What write queue length does an incoming req see
system.mem_ctrls.wrQLenPdf::1                       1                       # What write queue length does an incoming req see
system.mem_ctrls.wrQLenPdf::2                       1                       # What write queue length does an incoming req see
system.mem_ctrls.wrQLenPdf::3                       1                       # What write queue length does an incoming req see
system.mem_ctrls.wrQLenPdf::4                       1                       # What write queue length does an incoming req see
system.mem_ctrls.wrQLenPdf::5                       1                       # What write queue length does an incoming req see
system.mem_ctrls.wrQLenPdf::6                       1                       # What write queue length does an incoming req see
system.mem_ctrls.wrQLenPdf::7                       1                       # What write queue length does an incoming req see
system.mem_ctrls.wrQLenPdf::8                       1                       # What write queue length does an incoming req see
system.mem_ctrls.wrQLenPdf::9                       1                       # What write queue length does an incoming req see
system.mem_ctrls.wrQLenPdf::10                      1                       # What write queue length does an incoming req see
system.mem_ctrls.wrQLenPdf::11                      1                       # What write queue length does an incoming req see
system.mem_ctrls.wrQLenPdf::12                      1                       # What write queue length does an incoming req see
system.mem_ctrls.wrQLenPdf::13                      1                       # What write queue length does an incoming req see
system.mem_ctrls.wrQLenPdf::14                      1                       # What write queue length does an incoming req see
system.mem_ctrls.wrQLenPdf::15                   5636                       # What write queue length does an incoming req see
system.mem_ctrls.wrQLenPdf::16                   6587                       # What write queue length does an incoming req see
system.mem_ctrls.wrQLenPdf::17                  26716                       # What write queue length does an incoming req see
system.mem_ctrls.wrQLenPdf::18                  26406                       # What write queue length does an incoming req see
system.mem_ctrls.wrQLenPdf::19                  26300                       # What write queue length does an incoming req see
system.mem_ctrls.wrQLenPdf::20                  26716                       # What write queue length does an incoming req see
system.mem_ctrls.wrQLenPdf::21                  26836                       # What write queue length does an incoming req see
system.mem_ctrls.wrQLenPdf::22                  27001                       # What write queue length does an incoming req see
system.mem_ctrls.wrQLenPdf::23                  28270                       # What write queue length does an incoming req see
system.mem_ctrls.wrQLenPdf::24                  27096                       # What write queue length does an incoming req see
system.mem_ctrls.wrQLenPdf::25                  27073                       # What write queue length does an incoming req see
system.mem_ctrls.wrQLenPdf::26                  27903                       # What write queue length does an incoming req see
system.mem_ctrls.wrQLenPdf::27                  26823                       # What write queue length does an incoming req see
system.mem_ctrls.wrQLenPdf::28                  26833                       # What write queue length does an incoming req see
system.mem_ctrls.wrQLenPdf::29                  26647                       # What write queue length does an incoming req see
system.mem_ctrls.wrQLenPdf::30                  26585                       # What write queue length does an incoming req see
system.mem_ctrls.wrQLenPdf::31                  26140                       # What write queue length does an incoming req see
system.mem_ctrls.wrQLenPdf::32                  26038                       # What write queue length does an incoming req see
system.mem_ctrls.wrQLenPdf::33                    350                       # What write queue length does an incoming req see
system.mem_ctrls.wrQLenPdf::34                    344                       # What write queue length does an incoming req see
system.mem_ctrls.wrQLenPdf::35                    249                       # What write queue length does an incoming req see
system.mem_ctrls.wrQLenPdf::36                    297                       # What write queue length does an incoming req see
system.mem_ctrls.wrQLenPdf::37                    287                       # What write queue length does an incoming req see
system.mem_ctrls.wrQLenPdf::38                    269                       # What write queue length does an incoming req see
system.mem_ctrls.wrQLenPdf::39                    236                       # What write queue length does an incoming req see
system.mem_ctrls.wrQLenPdf::40                    255                       # What write queue length does an incoming req see
system.mem_ctrls.wrQLenPdf::41                    246                       # What write queue length does an incoming req see
system.mem_ctrls.wrQLenPdf::42                    238                       # What write queue length does an incoming req see
system.mem_ctrls.wrQLenPdf::43                    198                       # What write queue length does an incoming req see
system.mem_ctrls.wrQLenPdf::44                    199                       # What write queue length does an incoming req see
system.mem_ctrls.wrQLenPdf::45                    187                       # What write queue length does an incoming req see
system.mem_ctrls.wrQLenPdf::46                    153                       # What write queue length does an incoming req see
system.mem_ctrls.wrQLenPdf::47                    140                       # What write queue length does an incoming req see
system.mem_ctrls.wrQLenPdf::48                    128                       # What write queue length does an incoming req see
system.mem_ctrls.wrQLenPdf::49                    119                       # What write queue length does an incoming req see
system.mem_ctrls.wrQLenPdf::50                    132                       # What write queue length does an incoming req see
system.mem_ctrls.wrQLenPdf::51                    125                       # What write queue length does an incoming req see
system.mem_ctrls.wrQLenPdf::52                    115                       # What write queue length does an incoming req see
system.mem_ctrls.wrQLenPdf::53                    109                       # What write queue length does an incoming req see
system.mem_ctrls.wrQLenPdf::54                    123                       # What write queue length does an incoming req see
system.mem_ctrls.wrQLenPdf::55                     89                       # What write queue length does an incoming req see
system.mem_ctrls.wrQLenPdf::56                     98                       # What write queue length does an incoming req see
system.mem_ctrls.wrQLenPdf::57                     76                       # What write queue length does an incoming req see
system.mem_ctrls.wrQLenPdf::58                    130                       # What write queue length does an incoming req see
system.mem_ctrls.wrQLenPdf::59                    156                       # What write queue length does an incoming req see
system.mem_ctrls.wrQLenPdf::60                    187                       # What write queue length does an incoming req see
system.mem_ctrls.wrQLenPdf::61                     90                       # What write queue length does an incoming req see
system.mem_ctrls.wrQLenPdf::62                     72                       # What write queue length does an incoming req see
system.mem_ctrls.wrQLenPdf::63                     64                       # What write queue length does an incoming req see
system.mem_ctrls.bytesPerActivate::samples       178347                       # Bytes accessed per row activation
system.mem_ctrls.bytesPerActivate::mean    434.640695                       # Bytes accessed per row activation
system.mem_ctrls.bytesPerActivate::gmean   249.166467                       # Bytes accessed per row activation
system.mem_ctrls.bytesPerActivate::stdev   398.086798                       # Bytes accessed per row activation
system.mem_ctrls.bytesPerActivate::0-127        52987     29.71%     29.71% # Bytes accessed per row activation
system.mem_ctrls.bytesPerActivate::128-255        36351     20.38%     50.09% # Bytes accessed per row activation
system.mem_ctrls.bytesPerActivate::256-383        13809      7.74%     57.84% # Bytes accessed per row activation
system.mem_ctrls.bytesPerActivate::384-511         8938      5.01%     62.85% # Bytes accessed per row activation
system.mem_ctrls.bytesPerActivate::512-639         6117      3.43%     66.28% # Bytes accessed per row activation
system.mem_ctrls.bytesPerActivate::640-767         5684      3.19%     69.46% # Bytes accessed per row activation
system.mem_ctrls.bytesPerActivate::768-895         5697      3.19%     72.66% # Bytes accessed per row activation
system.mem_ctrls.bytesPerActivate::896-1023         4564      2.56%     75.22% # Bytes accessed per row activation
system.mem_ctrls.bytesPerActivate::1024-1151        44200     24.78%    100.00% # Bytes accessed per row activation
system.mem_ctrls.bytesPerActivate::total       178347                       # Bytes accessed per row activation
system.mem_ctrls.rdPerTurnAround::samples        25841                       # Reads before turning the bus around for writes
system.mem_ctrls.rdPerTurnAround::mean      29.570489                       # Reads before turning the bus around for writes
system.mem_ctrls.rdPerTurnAround::stdev    536.537493                       # Reads before turning the bus around for writes
system.mem_ctrls.rdPerTurnAround::0-2047        25837     99.98%     99.98% # Reads before turning the bus around for writes
system.mem_ctrls.rdPerTurnAround::8192-10239            1      0.00%     99.99% # Reads before turning the bus around for writes
system.mem_ctrls.rdPerTurnAround::20480-22527            1      0.00%     99.99% # Reads before turning the bus around for writes
system.mem_ctrls.rdPerTurnAround::57344-59391            1      0.00%    100.00% # Reads before turning the bus around for writes
system.mem_ctrls.rdPerTurnAround::59392-61439            1      0.00%    100.00% # Reads before turning the bus around for writes
system.mem_ctrls.rdPerTurnAround::total         25841                       # Reads before turning the bus around for writes
system.mem_ctrls.wrPerTurnAround::samples        25841                       # Writes before turning the bus around for reads
system.mem_ctrls.wrPerTurnAround::mean      17.300491                       # Writes before turning the bus around for reads
system.mem_ctrls.wrPerTurnAround::gmean     16.924585                       # Writes before turning the bus around for reads
system.mem_ctrls.wrPerTurnAround::stdev      5.437001                       # Writes before turning the bus around for reads
system.mem_ctrls.wrPerTurnAround::16-19         24647     95.38%     95.38% # Writes before turning the bus around for reads
system.mem_ctrls.wrPerTurnAround::20-23            58      0.22%     95.60% # Writes before turning the bus around for reads
system.mem_ctrls.wrPerTurnAround::24-27           414      1.60%     97.21% # Writes before turning the bus around for reads
system.mem_ctrls.wrPerTurnAround::28-31            60      0.23%     97.44% # Writes before turning the bus around for reads
system.mem_ctrls.wrPerTurnAround::32-35           256      0.99%     98.43% # Writes before turning the bus around for reads
system.mem_ctrls.wrPerTurnAround::36-39            72      0.28%     98.71% # Writes before turning the bus around for reads
system.mem_ctrls.wrPerTurnAround::40-43           189      0.73%     99.44% # Writes before turning the bus around for reads
system.mem_ctrls.wrPerTurnAround::44-47            16      0.06%     99.50% # Writes before turning the bus around for reads
system.mem_ctrls.wrPerTurnAround::48-51            17      0.07%     99.57% # Writes before turning the bus around for reads
system.mem_ctrls.wrPerTurnAround::52-55             7      0.03%     99.59% # Writes before turning the bus around for reads
system.mem_ctrls.wrPerTurnAround::56-59             5      0.02%     99.61% # Writes before turning the bus around for reads
system.mem_ctrls.wrPerTurnAround::60-63             8      0.03%     99.64% # Writes before turning the bus around for reads
system.mem_ctrls.wrPerTurnAround::64-67             3      0.01%     99.66% # Writes before turning the bus around for reads
system.mem_ctrls.wrPerTurnAround::68-71            20      0.08%     99.73% # Writes before turning the bus around for reads
system.mem_ctrls.wrPerTurnAround::72-75            14      0.05%     99.79% # Writes before turning the bus around for reads
system.mem_ctrls.wrPerTurnAround::76-79             3      0.01%     99.80% # Writes before turning the bus around for reads
system.mem_ctrls.wrPerTurnAround::80-83            16      0.06%     99.86% # Writes before turning the bus around for reads
system.mem_ctrls.wrPerTurnAround::84-87             1      0.00%     99.86% # Writes before turning the bus around for reads
system.mem_ctrls.wrPerTurnAround::88-91             7      0.03%     99.89% # Writes before turning the bus around for reads
system.mem_ctrls.wrPerTurnAround::92-95            12      0.05%     99.94% # Writes before turning the bus around for reads
system.mem_ctrls.wrPerTurnAround::96-99             4      0.02%     99.95% # Writes before turning the bus around for reads
system.mem_ctrls.wrPerTurnAround::100-103            5      0.02%     99.97% # Writes before turning the bus around for reads
system.mem_ctrls.wrPerTurnAround::104-107            1      0.00%     99.98% # Writes before turning the bus around for reads
system.mem_ctrls.wrPerTurnAround::108-111            4      0.02%     99.99% # Writes before turning the bus around for reads
system.mem_ctrls.wrPerTurnAround::112-115            1      0.00%    100.00% # Writes before turning the bus around for reads
system.mem_ctrls.wrPerTurnAround::128-131            1      0.00%    100.00% # Writes before turning the bus around for reads
system.mem_ctrls.wrPerTurnAround::total         25841                       # Writes before turning the bus around for reads
system.mem_ctrls.totQLat                  13089662013                       # Total ticks spent queuing
system.mem_ctrls.totMemAccLat             27417268263                       # Total ticks spent from burst creation until serviced by the DRAM
system.mem_ctrls.totBusLat                 3820695000                       # Total ticks spent in databus transfers
system.mem_ctrls.avgQLat                     17129.95                       # Average queueing delay per DRAM burst
system.mem_ctrls.avgBusLat                    5000.00                       # Average bus latency per DRAM burst
system.mem_ctrls.avgMemAccLat                35879.95                       # Average memory access latency per DRAM burst
system.mem_ctrls.avgRdBW                        20.01                       # Average DRAM read bandwidth in MiByte/s
system.mem_ctrls.avgWrBW                        11.71                       # Average achieved write bandwidth in MiByte/s
system.mem_ctrls.avgRdBWSys                     10.01                       # Average system read bandwidth in MiByte/s
system.mem_ctrls.avgWrBWSys                      7.67                       # Average system write bandwidth in MiByte/s
system.mem_ctrls.peakBW                      12800.00                       # Theoretical peak bandwidth in MiByte/s
system.mem_ctrls.busUtil                         0.25                       # Data bus utilization in percentage
system.mem_ctrls.busUtilRead                     0.16                       # Data bus utilization in percentage for reads
system.mem_ctrls.busUtilWrite                    0.09                       # Data bus utilization in percentage for writes
system.mem_ctrls.avgRdQLen                       1.00                       # Average read queue length when enqueuing
system.mem_ctrls.avgWrQLen                      26.72                       # Average write queue length when enqueuing
system.mem_ctrls.readRowHits                   677300                       # Number of row buffer hits during reads
system.mem_ctrls.writeRowHits                  355554                       # Number of row buffer hits during writes
system.mem_ctrls.readRowHitRate                 88.64                       # Row buffer hit rate for reads
system.mem_ctrls.writeRowHitRate                79.53                       # Row buffer hit rate for writes
system.mem_ctrls.avgGap                    1809231.20                       # Average gap between requests
system.mem_ctrls.pageHitRate                    85.27                       # Row buffer hit rate, read and write combined
system.mem_ctrls_0.actEnergy                636416760                       # Energy for activate commands per rank (pJ)
system.mem_ctrls_0.preEnergy                338263530                       # Energy for precharge commands per rank (pJ)
system.mem_ctrls_0.readEnergy              2695321440                       # Energy for read commands per rank (pJ)
system.mem_ctrls_0.writeEnergy             1172432880                       # Energy for write commands per rank (pJ)
system.mem_ctrls_0.refreshEnergy         13094290560.000002                       # Energy for refresh commands per rank (pJ)
system.mem_ctrls_0.actBackEnergy          14672686920                       # Energy for active background per rank (pJ)
system.mem_ctrls_0.preBackEnergy            742817760                       # Energy for precharge background per rank (pJ)
system.mem_ctrls_0.actPowerDownEnergy     29020105050                       # Energy for active power-down per rank (pJ)
system.mem_ctrls_0.prePowerDownEnergy     15521052960                       # Energy for precharge power-down per rank (pJ)
system.mem_ctrls_0.selfRefreshEnergy     555543585900                       # Energy for self refresh per rank (pJ)
system.mem_ctrls_0.totalEnergy           633442095630                       # Total energy per rank (pJ)
system.mem_ctrls_0.averagePower            259.166994                       # Core power per rank (mW)
system.mem_ctrls_0.totalIdleTime         2410023639501                       # Total Idle time Per DRAM Rank
system.mem_ctrls_0.memoryStateTime::IDLE   1256014499                       # Time in different power states
system.mem_ctrls_0.memoryStateTime::REF    5562512000                       # Time in different power states
system.mem_ctrls_0.memoryStateTime::SREF 2305963767750                       # Time in different power states
system.mem_ctrls_0.memoryStateTime::PRE_PDN  40419494250                       # Time in different power states
system.mem_ctrls_0.memoryStateTime::ACT   27304196500                       # Time in different power states
system.mem_ctrls_0.memoryStateTime::ACT_PDN  63640491501                       # Time in different power states
system.mem_ctrls_1.actEnergy                636980820                       # Energy for activate commands per rank (pJ)
system.mem_ctrls_1.preEnergy                338563335                       # Energy for precharge commands per rank (pJ)
system.mem_ctrls_1.readEnergy              2760631020                       # Energy for read commands per rank (pJ)
system.mem_ctrls_1.writeEnergy             1161230760                       # Energy for write commands per rank (pJ)
system.mem_ctrls_1.refreshEnergy         11844112800.000002                       # Energy for refresh commands per rank (pJ)
system.mem_ctrls_1.actBackEnergy          13933025850                       # Energy for active background per rank (pJ)
system.mem_ctrls_1.preBackEnergy            646696800                       # Energy for precharge background per rank (pJ)
system.mem_ctrls_1.actPowerDownEnergy     27326372280                       # Energy for active power-down per rank (pJ)
system.mem_ctrls_1.prePowerDownEnergy     13424263680                       # Energy for precharge power-down per rank (pJ)
system.mem_ctrls_1.selfRefreshEnergy     557830410000                       # Energy for self refresh per rank (pJ)
system.mem_ctrls_1.totalEnergy           629906364555                       # Total energy per rank (pJ)
system.mem_ctrls_1.averagePower            257.720382                       # Core power per rank (mW)
system.mem_ctrls_1.totalIdleTime         2411896100250                       # Total Idle time Per DRAM Rank
system.mem_ctrls_1.memoryStateTime::IDLE   1045441250                       # Time in different power states
system.mem_ctrls_1.memoryStateTime::REF    5029718000                       # Time in different power states
system.mem_ctrls_1.memoryStateTime::SREF 2317013103250                       # Time in different power states
system.mem_ctrls_1.memoryStateTime::PRE_PDN  34959071000                       # Time in different power states
system.mem_ctrls_1.memoryStateTime::ACT   26172371000                       # Time in different power states
system.mem_ctrls_1.memoryStateTime::ACT_PDN  59926772000                       # Time in different power states
system.pwrStateResidencyTicks::UNDEFINED 2444146476500                       # Cumulative time (in ticks) in various power states
system.bridge.pwrStateResidencyTicks::UNDEFINED 2444146476500                       # Cumulative time (in ticks) in various power states
system.cpu_voltage_domain.voltage                   1                       # Voltage in Volts
system.cpu_clk_domain.clock                       500                       # Clock period in ticks
system.cpu.dtb.fetch_hits                           0                       # ITB hits
system.cpu.dtb.fetch_misses                         0                       # ITB misses
system.cpu.dtb.fetch_acv                            0                       # ITB acv
system.cpu.dtb.fetch_accesses                       0                       # ITB accesses
system.cpu.dtb.read_hits                     16013348                       # DTB read hits
system.cpu.dtb.read_misses                      12438                       # DTB read misses
system.cpu.dtb.read_acv                            98                       # DTB read access violations
system.cpu.dtb.read_accesses                   817029                       # DTB read accesses
system.cpu.dtb.write_hits                     8864870                       # DTB write hits
system.cpu.dtb.write_misses                      1307                       # DTB write misses
system.cpu.dtb.write_acv                          169                       # DTB write access violations
system.cpu.dtb.write_accesses                  324494                       # DTB write accesses
system.cpu.dtb.data_hits                     24878218                       # DTB hits
system.cpu.dtb.data_misses                      13745                       # DTB misses
system.cpu.dtb.data_acv                           267                       # DTB access violations
system.cpu.dtb.data_accesses                  1141523                       # DTB accesses
system.cpu.itb.fetch_hits                     5652121                       # ITB hits
system.cpu.itb.fetch_misses                      6043                       # ITB misses
system.cpu.itb.fetch_acv                            1                       # ITB acv
system.cpu.itb.fetch_accesses                 5658164                       # ITB accesses
system.cpu.itb.read_hits                            0                       # DTB read hits
system.cpu.itb.read_misses                          0                       # DTB read misses
system.cpu.itb.read_acv                             0                       # DTB read access violations
system.cpu.itb.read_accesses                        0                       # DTB read accesses
system.cpu.itb.write_hits                           0                       # DTB write hits
system.cpu.itb.write_misses                         0                       # DTB write misses
system.cpu.itb.write_acv                            0                       # DTB write access violations
system.cpu.itb.write_accesses                       0                       # DTB write accesses
system.cpu.itb.data_hits                            0                       # DTB hits
system.cpu.itb.data_misses                          0                       # DTB misses
system.cpu.itb.data_acv                             0                       # DTB access violations
system.cpu.itb.data_accesses                        0                       # DTB accesses
system.cpu.numPwrStateTransitions               14350                       # Number of power state transitions
system.cpu.pwrStateClkGateDist::samples          7175                       # Distribution of time spent in the clock gated state
system.cpu.pwrStateClkGateDist::mean     306589647.874564                       # Distribution of time spent in the clock gated state
system.cpu.pwrStateClkGateDist::stdev    450287275.075636                       # Distribution of time spent in the clock gated state
system.cpu.pwrStateClkGateDist::1000-5e+10         7175    100.00%    100.00% # Distribution of time spent in the clock gated state
system.cpu.pwrStateClkGateDist::min_value         1000                       # Distribution of time spent in the clock gated state
system.cpu.pwrStateClkGateDist::max_value   2000000000                       # Distribution of time spent in the clock gated state
system.cpu.pwrStateClkGateDist::total            7175                       # Distribution of time spent in the clock gated state
system.cpu.pwrStateResidencyTicks::ON    244365753000                       # Cumulative time (in ticks) in various power states
system.cpu.pwrStateResidencyTicks::CLK_GATED 2199780723500                       # Cumulative time (in ticks) in various power states
system.cpu.numCycles                       4888292953                       # number of cpu cycles simulated
system.cpu.numWorkItemsStarted                      0                       # number of work items this cpu started
system.cpu.numWorkItemsCompleted                    0                       # number of work items this cpu completed
system.cpu.kern.inst.arm                            0                       # number of arm instructions executed
system.cpu.kern.inst.quiesce                     7175                       # number of quiesce instructions executed
system.cpu.kern.callpal::cserve                     1      0.00%      0.00% # number of callpals executed
system.cpu.kern.callpal::wrmces                     1      0.00%      0.00% # number of callpals executed
system.cpu.kern.callpal::wrfen                      1      0.00%      0.00% # number of callpals executed
system.cpu.kern.callpal::wrvptptr                   1      0.00%      0.00% # number of callpals executed
system.cpu.kern.callpal::swpctx                  4541      2.13%      2.13% # number of callpals executed
system.cpu.kern.callpal::tbi                       65      0.03%      2.16% # number of callpals executed
system.cpu.kern.callpal::wrent                      7      0.00%      2.16% # number of callpals executed
system.cpu.kern.callpal::swpipl                196406     91.91%     94.07% # number of callpals executed
system.cpu.kern.callpal::rdps                    5785      2.71%     96.78% # number of callpals executed
system.cpu.kern.callpal::wrkgp                      1      0.00%     96.78% # number of callpals executed
system.cpu.kern.callpal::wrusp                      8      0.00%     96.79% # number of callpals executed
system.cpu.kern.callpal::rdusp                     10      0.00%     96.79% # number of callpals executed
system.cpu.kern.callpal::whami                      2      0.00%     96.79% # number of callpals executed
system.cpu.kern.callpal::rti                     6064      2.84%     99.63% # number of callpals executed
system.cpu.kern.callpal::callsys                  559      0.26%     99.89% # number of callpals executed
system.cpu.kern.callpal::imb                      235      0.11%    100.00% # number of callpals executed
system.cpu.kern.callpal::total                 213687                       # number of callpals executed
system.cpu.kern.inst.hwrei                     236325                       # number of hwrei instructions executed
system.cpu.kern.mode_switch::kernel              6760                       # number of protection mode switches
system.cpu.kern.mode_switch::user                1964                       # number of protection mode switches
system.cpu.kern.mode_switch::idle                2351                       # number of protection mode switches
system.cpu.kern.mode_good::kernel                2047                      
system.cpu.kern.mode_good::user                  1964                      
system.cpu.kern.mode_good::idle                    83                      
system.cpu.kern.mode_switch_good::kernel     0.302811                       # fraction of useful protection mode switches
system.cpu.kern.mode_switch_good::user              1                       # fraction of useful protection mode switches
system.cpu.kern.mode_switch_good::idle       0.035304                       # fraction of useful protection mode switches
system.cpu.kern.mode_switch_good::total      0.369661                       # fraction of useful protection mode switches
system.cpu.kern.mode_ticks::kernel       181278465500      7.42%      7.42% # number of ticks spent at the given mode
system.cpu.kern.mode_ticks::user           8085636000      0.33%      7.75% # number of ticks spent at the given mode
system.cpu.kern.mode_ticks::idle         2254781345000     92.25%    100.00% # number of ticks spent at the given mode
system.cpu.kern.swap_context                     4542                       # number of times the context was actually changed
system.cpu.kern.ipl_count::0                    82489     40.23%     40.23% # number of times we switched to this ipl
system.cpu.kern.ipl_count::21                     117      0.06%     40.29% # number of times we switched to this ipl
system.cpu.kern.ipl_count::22                    2463      1.20%     41.49% # number of times we switched to this ipl
system.cpu.kern.ipl_count::31                  119982     58.51%    100.00% # number of times we switched to this ipl
system.cpu.kern.ipl_count::total               205051                       # number of times we switched to this ipl
system.cpu.kern.ipl_good::0                     80952     49.22%     49.22% # number of times we switched to this ipl from a different ipl
system.cpu.kern.ipl_good::21                      117      0.07%     49.29% # number of times we switched to this ipl from a different ipl
system.cpu.kern.ipl_good::22                     2463      1.50%     50.78% # number of times we switched to this ipl from a different ipl
system.cpu.kern.ipl_good::31                    80952     49.22%    100.00% # number of times we switched to this ipl from a different ipl
system.cpu.kern.ipl_good::total                164484                       # number of times we switched to this ipl from a different ipl
system.cpu.kern.ipl_ticks::0             2358529616500     96.50%     96.50% # number of cycles we spent at this ipl
system.cpu.kern.ipl_ticks::21                90434500      0.00%     96.50% # number of cycles we spent at this ipl
system.cpu.kern.ipl_ticks::22              1071029000      0.04%     96.54% # number of cycles we spent at this ipl
system.cpu.kern.ipl_ticks::31             84454368500      3.46%    100.00% # number of cycles we spent at this ipl
system.cpu.kern.ipl_ticks::total         2444145448500                       # number of cycles we spent at this ipl
system.cpu.kern.ipl_used::0                  0.981367                       # fraction of swpipl calls that actually changed the ipl
system.cpu.kern.ipl_used::21                        1                       # fraction of swpipl calls that actually changed the ipl
system.cpu.kern.ipl_used::22                        1                       # fraction of swpipl calls that actually changed the ipl
system.cpu.kern.ipl_used::31                 0.674701                       # fraction of swpipl calls that actually changed the ipl
system.cpu.kern.ipl_used::total              0.802161                       # fraction of swpipl calls that actually changed the ipl
system.cpu.committedInsts                    91528537                       # Number of instructions committed
system.cpu.committedOps                      91528537                       # Number of ops (including micro ops) committed
system.cpu.num_int_alu_accesses              88533343                       # Number of integer alu accesses
system.cpu.num_fp_alu_accesses                 428529                       # Number of float alu accesses
system.cpu.num_vec_alu_accesses                     0                       # Number of vector alu accesses
system.cpu.num_func_calls                     2909800                       # number of times a function call or return occured
system.cpu.num_conditional_control_insts     11607444                       # number of instructions that are conditional controls
system.cpu.num_int_insts                     88533343                       # number of integer instructions
system.cpu.num_fp_insts                        428529                       # number of float instructions
system.cpu.num_vec_insts                            0                       # number of vector instructions
system.cpu.num_int_register_reads           120936682                       # number of times the integer registers were read
system.cpu.num_int_register_writes           66854875                       # number of times the integer registers were written
system.cpu.num_fp_register_reads               178874                       # number of times the floating registers were read
system.cpu.num_fp_register_writes              181901                       # number of times the floating registers were written
system.cpu.num_vec_register_reads                   0                       # number of times the vector registers were read
system.cpu.num_vec_register_writes                  0                       # number of times the vector registers were written
system.cpu.num_mem_refs                      24937320                       # number of memory refs
system.cpu.num_load_insts                    16054886                       # Number of load instructions
system.cpu.num_store_insts                    8882434                       # Number of store instructions
system.cpu.num_idle_cycles               4399561446.998200                       # Number of idle cycles
system.cpu.num_busy_cycles               488731506.001800                       # Number of busy cycles
system.cpu.not_idle_fraction                 0.099980                       # Percentage of non-idle cycles
system.cpu.idle_fraction                     0.900020                       # Percentage of idle cycles
system.cpu.Branches                          15127284                       # Number of branches fetched
system.cpu.op_class::No_OpClass               1594780      1.74%      1.74% # Class of executed instruction
system.cpu.op_class::IntAlu                  63094226     68.92%     70.67% # Class of executed instruction
system.cpu.op_class::IntMult                   186012      0.20%     70.87% # Class of executed instruction
system.cpu.op_class::IntDiv                         0      0.00%     70.87% # Class of executed instruction
system.cpu.op_class::FloatAdd                  117488      0.13%     71.00% # Class of executed instruction
system.cpu.op_class::FloatCmp                       0      0.00%     71.00% # Class of executed instruction
system.cpu.op_class::FloatCvt                       0      0.00%     71.00% # Class of executed instruction
system.cpu.op_class::FloatMult                      0      0.00%     71.00% # Class of executed instruction
system.cpu.op_class::FloatMultAcc                   0      0.00%     71.00% # Class of executed instruction
system.cpu.op_class::FloatDiv                    4179      0.00%     71.00% # Class of executed instruction
system.cpu.op_class::FloatMisc                      0      0.00%     71.00% # Class of executed instruction
system.cpu.op_class::FloatSqrt                      0      0.00%     71.00% # Class of executed instruction
system.cpu.op_class::SimdAdd                        0      0.00%     71.00% # Class of executed instruction
system.cpu.op_class::SimdAddAcc                     0      0.00%     71.00% # Class of executed instruction
system.cpu.op_class::SimdAlu                        0      0.00%     71.00% # Class of executed instruction
system.cpu.op_class::SimdCmp                        0      0.00%     71.00% # Class of executed instruction
system.cpu.op_class::SimdCvt                        0      0.00%     71.00% # Class of executed instruction
system.cpu.op_class::SimdMisc                       0      0.00%     71.00% # Class of executed instruction
system.cpu.op_class::SimdMult                       0      0.00%     71.00% # Class of executed instruction
system.cpu.op_class::SimdMultAcc                    0      0.00%     71.00% # Class of executed instruction
system.cpu.op_class::SimdShift                      0      0.00%     71.00% # Class of executed instruction
system.cpu.op_class::SimdShiftAcc                   0      0.00%     71.00% # Class of executed instruction
system.cpu.op_class::SimdSqrt                       0      0.00%     71.00% # Class of executed instruction
system.cpu.op_class::SimdFloatAdd                   0      0.00%     71.00% # Class of executed instruction
system.cpu.op_class::SimdFloatAlu                   0      0.00%     71.00% # Class of executed instruction
system.cpu.op_class::SimdFloatCmp                   0      0.00%     71.00% # Class of executed instruction
system.cpu.op_class::SimdFloatCvt                   0      0.00%     71.00% # Class of executed instruction
system.cpu.op_class::SimdFloatDiv                   0      0.00%     71.00% # Class of executed instruction
system.cpu.op_class::SimdFloatMisc                  0      0.00%     71.00% # Class of executed instruction
system.cpu.op_class::SimdFloatMult                  0      0.00%     71.00% # Class of executed instruction
system.cpu.op_class::SimdFloatMultAcc               0      0.00%     71.00% # Class of executed instruction
system.cpu.op_class::SimdFloatSqrt                  0      0.00%     71.00% # Class of executed instruction
system.cpu.op_class::MemRead                 16353660     17.86%     88.87% # Class of executed instruction
system.cpu.op_class::MemWrite                 8806707      9.62%     98.49% # Class of executed instruction
system.cpu.op_class::FloatMemRead              157038      0.17%     98.66% # Class of executed instruction
system.cpu.op_class::FloatMemWrite             149824      0.16%     98.82% # Class of executed instruction
system.cpu.op_class::IprAccess                1078635      1.18%    100.00% # Class of executed instruction
system.cpu.op_class::InstPrefetch                   0      0.00%    100.00% # Class of executed instruction
system.cpu.op_class::total                   91542549                       # Class of executed instruction
system.cpu.dcache.tags.pwrStateResidencyTicks::UNDEFINED 2444146476500                       # Cumulative time (in ticks) in various power states
system.cpu.dcache.tags.replacements           2981551                       # number of replacements
system.cpu.dcache.tags.tagsinuse          1023.952193                       # Cycle average of tags in use
system.cpu.dcache.tags.total_refs            21897107                       # Total number of references to valid blocks.
system.cpu.dcache.tags.sampled_refs           2981551                       # Sample count of references to valid blocks.
system.cpu.dcache.tags.avg_refs              7.344200                       # Average number of references to valid blocks.
system.cpu.dcache.tags.warmup_cycle         168190500                       # Cycle when the warmup percentage was hit.
system.cpu.dcache.tags.occ_blocks::cpu.data  1023.952193                       # Average occupied blocks per requestor
system.cpu.dcache.tags.occ_percent::cpu.data     0.999953                       # Average percentage of cache occupancy
system.cpu.dcache.tags.occ_percent::total     0.999953                       # Average percentage of cache occupancy
system.cpu.dcache.tags.occ_task_id_blocks::1024         1024                       # Occupied blocks per task id
system.cpu.dcache.tags.age_task_id_blocks_1024::0          128                       # Occupied blocks per task id
system.cpu.dcache.tags.age_task_id_blocks_1024::1          778                       # Occupied blocks per task id
system.cpu.dcache.tags.age_task_id_blocks_1024::2          111                       # Occupied blocks per task id
system.cpu.dcache.tags.age_task_id_blocks_1024::3            7                       # Occupied blocks per task id
system.cpu.dcache.tags.occ_task_id_percent::1024            1                       # Percentage of cache occupancy per task id
system.cpu.dcache.tags.tag_accesses         799778201                       # Number of tag accesses
system.cpu.dcache.tags.data_accesses        799778201                       # Number of data accesses
system.cpu.dcache.pwrStateResidencyTicks::UNDEFINED 2444146476500                       # Cumulative time (in ticks) in various power states
system.cpu.dcache.ReadReq_hits::cpu.data     13572306                       # number of ReadReq hits
system.cpu.dcache.ReadReq_hits::total        13572306                       # number of ReadReq hits
system.cpu.dcache.WriteReq_hits::cpu.data      7736827                       # number of WriteReq hits
system.cpu.dcache.WriteReq_hits::total        7736827                       # number of WriteReq hits
system.cpu.dcache.LoadLockedReq_hits::cpu.data       292758                       # number of LoadLockedReq hits
system.cpu.dcache.LoadLockedReq_hits::total       292758                       # number of LoadLockedReq hits
system.cpu.dcache.StoreCondReq_hits::cpu.data       315335                       # number of StoreCondReq hits
system.cpu.dcache.StoreCondReq_hits::total       315335                       # number of StoreCondReq hits
system.cpu.dcache.demand_hits::cpu.data      21309133                       # number of demand (read+write) hits
system.cpu.dcache.demand_hits::total         21309133                       # number of demand (read+write) hits
system.cpu.dcache.overall_hits::cpu.data     21309133                       # number of overall hits
system.cpu.dcache.overall_hits::total        21309133                       # number of overall hits
system.cpu.dcache.ReadReq_misses::cpu.data      2146564                       # number of ReadReq misses
system.cpu.dcache.ReadReq_misses::total       2146564                       # number of ReadReq misses
system.cpu.dcache.WriteReq_misses::cpu.data       812407                       # number of WriteReq misses
system.cpu.dcache.WriteReq_misses::total       812407                       # number of WriteReq misses
system.cpu.dcache.LoadLockedReq_misses::cpu.data        23666                       # number of LoadLockedReq misses
system.cpu.dcache.LoadLockedReq_misses::total        23666                       # number of LoadLockedReq misses
system.cpu.dcache.demand_misses::cpu.data      2958971                       # number of demand (read+write) misses
system.cpu.dcache.demand_misses::total        2958971                       # number of demand (read+write) misses
system.cpu.dcache.overall_misses::cpu.data      2958971                       # number of overall misses
system.cpu.dcache.overall_misses::total       2958971                       # number of overall misses
system.cpu.dcache.ReadReq_miss_latency::cpu.data  50410547500                       # number of ReadReq miss cycles
system.cpu.dcache.ReadReq_miss_latency::total  50410547500                       # number of ReadReq miss cycles
system.cpu.dcache.WriteReq_miss_latency::cpu.data  43016709500                       # number of WriteReq miss cycles
system.cpu.dcache.WriteReq_miss_latency::total  43016709500                       # number of WriteReq miss cycles
system.cpu.dcache.LoadLockedReq_miss_latency::cpu.data    364230000                       # number of LoadLockedReq miss cycles
system.cpu.dcache.LoadLockedReq_miss_latency::total    364230000                       # number of LoadLockedReq miss cycles
system.cpu.dcache.demand_miss_latency::cpu.data  93427257000                       # number of demand (read+write) miss cycles
system.cpu.dcache.demand_miss_latency::total  93427257000                       # number of demand (read+write) miss cycles
system.cpu.dcache.overall_miss_latency::cpu.data  93427257000                       # number of overall miss cycles
system.cpu.dcache.overall_miss_latency::total  93427257000                       # number of overall miss cycles
system.cpu.dcache.ReadReq_accesses::cpu.data     15718870                       # number of ReadReq accesses(hits+misses)
system.cpu.dcache.ReadReq_accesses::total     15718870                       # number of ReadReq accesses(hits+misses)
system.cpu.dcache.WriteReq_accesses::cpu.data      8549234                       # number of WriteReq accesses(hits+misses)
system.cpu.dcache.WriteReq_accesses::total      8549234                       # number of WriteReq accesses(hits+misses)
system.cpu.dcache.LoadLockedReq_accesses::cpu.data       316424                       # number of LoadLockedReq accesses(hits+misses)
system.cpu.dcache.LoadLockedReq_accesses::total       316424                       # number of LoadLockedReq accesses(hits+misses)
system.cpu.dcache.StoreCondReq_accesses::cpu.data       315335                       # number of StoreCondReq accesses(hits+misses)
system.cpu.dcache.StoreCondReq_accesses::total       315335                       # number of StoreCondReq accesses(hits+misses)
system.cpu.dcache.demand_accesses::cpu.data     24268104                       # number of demand (read+write) accesses
system.cpu.dcache.demand_accesses::total     24268104                       # number of demand (read+write) accesses
system.cpu.dcache.overall_accesses::cpu.data     24268104                       # number of overall (read+write) accesses
system.cpu.dcache.overall_accesses::total     24268104                       # number of overall (read+write) accesses
system.cpu.dcache.ReadReq_miss_rate::cpu.data     0.136560                       # miss rate for ReadReq accesses
system.cpu.dcache.ReadReq_miss_rate::total     0.136560                       # miss rate for ReadReq accesses
system.cpu.dcache.WriteReq_miss_rate::cpu.data     0.095027                       # miss rate for WriteReq accesses
system.cpu.dcache.WriteReq_miss_rate::total     0.095027                       # miss rate for WriteReq accesses
system.cpu.dcache.LoadLockedReq_miss_rate::cpu.data     0.074792                       # miss rate for LoadLockedReq accesses
system.cpu.dcache.LoadLockedReq_miss_rate::total     0.074792                       # miss rate for LoadLockedReq accesses
system.cpu.dcache.demand_miss_rate::cpu.data     0.121928                       # miss rate for demand accesses
system.cpu.dcache.demand_miss_rate::total     0.121928                       # miss rate for demand accesses
system.cpu.dcache.overall_miss_rate::cpu.data     0.121928                       # miss rate for overall accesses
system.cpu.dcache.overall_miss_rate::total     0.121928                       # miss rate for overall accesses
system.cpu.dcache.ReadReq_avg_miss_latency::cpu.data 23484.297463                       # average ReadReq miss latency
system.cpu.dcache.ReadReq_avg_miss_latency::total 23484.297463                       # average ReadReq miss latency
system.cpu.dcache.WriteReq_avg_miss_latency::cpu.data 52949.703166                       # average WriteReq miss latency
system.cpu.dcache.WriteReq_avg_miss_latency::total 52949.703166                       # average WriteReq miss latency
system.cpu.dcache.LoadLockedReq_avg_miss_latency::cpu.data 15390.433533                       # average LoadLockedReq miss latency
system.cpu.dcache.LoadLockedReq_avg_miss_latency::total 15390.433533                       # average LoadLockedReq miss latency
system.cpu.dcache.demand_avg_miss_latency::cpu.data 31574.238815                       # average overall miss latency
system.cpu.dcache.demand_avg_miss_latency::total 31574.238815                       # average overall miss latency
system.cpu.dcache.overall_avg_miss_latency::cpu.data 31574.238815                       # average overall miss latency
system.cpu.dcache.overall_avg_miss_latency::total 31574.238815                       # average overall miss latency
system.cpu.dcache.blocked_cycles::no_mshrs            0                       # number of cycles access was blocked
system.cpu.dcache.blocked_cycles::no_targets            0                       # number of cycles access was blocked
system.cpu.dcache.blocked::no_mshrs                 0                       # number of cycles access was blocked
system.cpu.dcache.blocked::no_targets               0                       # number of cycles access was blocked
system.cpu.dcache.avg_blocked_cycles::no_mshrs          nan                       # average number of cycles each access was blocked
system.cpu.dcache.avg_blocked_cycles::no_targets          nan                       # average number of cycles each access was blocked
system.cpu.dcache.writebacks::writebacks      2480205                       # number of writebacks
system.cpu.dcache.writebacks::total           2480205                       # number of writebacks
system.cpu.dcache.ReadReq_mshr_misses::cpu.data      2146564                       # number of ReadReq MSHR misses
system.cpu.dcache.ReadReq_mshr_misses::total      2146564                       # number of ReadReq MSHR misses
system.cpu.dcache.WriteReq_mshr_misses::cpu.data       812407                       # number of WriteReq MSHR misses
system.cpu.dcache.WriteReq_mshr_misses::total       812407                       # number of WriteReq MSHR misses
system.cpu.dcache.LoadLockedReq_mshr_misses::cpu.data        23666                       # number of LoadLockedReq MSHR misses
system.cpu.dcache.LoadLockedReq_mshr_misses::total        23666                       # number of LoadLockedReq MSHR misses
system.cpu.dcache.demand_mshr_misses::cpu.data      2958971                       # number of demand (read+write) MSHR misses
system.cpu.dcache.demand_mshr_misses::total      2958971                       # number of demand (read+write) MSHR misses
system.cpu.dcache.overall_mshr_misses::cpu.data      2958971                       # number of overall MSHR misses
system.cpu.dcache.overall_mshr_misses::total      2958971                       # number of overall MSHR misses
system.cpu.dcache.ReadReq_mshr_uncacheable::cpu.data         7056                       # number of ReadReq MSHR uncacheable
system.cpu.dcache.ReadReq_mshr_uncacheable::total         7056                       # number of ReadReq MSHR uncacheable
system.cpu.dcache.WriteReq_mshr_uncacheable::cpu.data        10324                       # number of WriteReq MSHR uncacheable
system.cpu.dcache.WriteReq_mshr_uncacheable::total        10324                       # number of WriteReq MSHR uncacheable
system.cpu.dcache.overall_mshr_uncacheable_misses::cpu.data        17380                       # number of overall MSHR uncacheable misses
system.cpu.dcache.overall_mshr_uncacheable_misses::total        17380                       # number of overall MSHR uncacheable misses
system.cpu.dcache.ReadReq_mshr_miss_latency::cpu.data  48263983500                       # number of ReadReq MSHR miss cycles
system.cpu.dcache.ReadReq_mshr_miss_latency::total  48263983500                       # number of ReadReq MSHR miss cycles
system.cpu.dcache.WriteReq_mshr_miss_latency::cpu.data  42204302500                       # number of WriteReq MSHR miss cycles
system.cpu.dcache.WriteReq_mshr_miss_latency::total  42204302500                       # number of WriteReq MSHR miss cycles
system.cpu.dcache.LoadLockedReq_mshr_miss_latency::cpu.data    340564000                       # number of LoadLockedReq MSHR miss cycles
system.cpu.dcache.LoadLockedReq_mshr_miss_latency::total    340564000                       # number of LoadLockedReq MSHR miss cycles
system.cpu.dcache.demand_mshr_miss_latency::cpu.data  90468286000                       # number of demand (read+write) MSHR miss cycles
system.cpu.dcache.demand_mshr_miss_latency::total  90468286000                       # number of demand (read+write) MSHR miss cycles
system.cpu.dcache.overall_mshr_miss_latency::cpu.data  90468286000                       # number of overall MSHR miss cycles
system.cpu.dcache.overall_mshr_miss_latency::total  90468286000                       # number of overall MSHR miss cycles
system.cpu.dcache.ReadReq_mshr_uncacheable_latency::cpu.data   1566262500                       # number of ReadReq MSHR uncacheable cycles
system.cpu.dcache.ReadReq_mshr_uncacheable_latency::total   1566262500                       # number of ReadReq MSHR uncacheable cycles
system.cpu.dcache.overall_mshr_uncacheable_latency::cpu.data   1566262500                       # number of overall MSHR uncacheable cycles
system.cpu.dcache.overall_mshr_uncacheable_latency::total   1566262500                       # number of overall MSHR uncacheable cycles
system.cpu.dcache.ReadReq_mshr_miss_rate::cpu.data     0.136560                       # mshr miss rate for ReadReq accesses
system.cpu.dcache.ReadReq_mshr_miss_rate::total     0.136560                       # mshr miss rate for ReadReq accesses
system.cpu.dcache.WriteReq_mshr_miss_rate::cpu.data     0.095027                       # mshr miss rate for WriteReq accesses
system.cpu.dcache.WriteReq_mshr_miss_rate::total     0.095027                       # mshr miss rate for WriteReq accesses
system.cpu.dcache.LoadLockedReq_mshr_miss_rate::cpu.data     0.074792                       # mshr miss rate for LoadLockedReq accesses
system.cpu.dcache.LoadLockedReq_mshr_miss_rate::total     0.074792                       # mshr miss rate for LoadLockedReq accesses
system.cpu.dcache.demand_mshr_miss_rate::cpu.data     0.121928                       # mshr miss rate for demand accesses
system.cpu.dcache.demand_mshr_miss_rate::total     0.121928                       # mshr miss rate for demand accesses
system.cpu.dcache.overall_mshr_miss_rate::cpu.data     0.121928                       # mshr miss rate for overall accesses
system.cpu.dcache.overall_mshr_miss_rate::total     0.121928                       # mshr miss rate for overall accesses
system.cpu.dcache.ReadReq_avg_mshr_miss_latency::cpu.data 22484.297463                       # average ReadReq mshr miss latency
system.cpu.dcache.ReadReq_avg_mshr_miss_latency::total 22484.297463                       # average ReadReq mshr miss latency
system.cpu.dcache.WriteReq_avg_mshr_miss_latency::cpu.data 51949.703166                       # average WriteReq mshr miss latency
system.cpu.dcache.WriteReq_avg_mshr_miss_latency::total 51949.703166                       # average WriteReq mshr miss latency
system.cpu.dcache.LoadLockedReq_avg_mshr_miss_latency::cpu.data 14390.433533                       # average LoadLockedReq mshr miss latency
system.cpu.dcache.LoadLockedReq_avg_mshr_miss_latency::total 14390.433533                       # average LoadLockedReq mshr miss latency
system.cpu.dcache.demand_avg_mshr_miss_latency::cpu.data 30574.238815                       # average overall mshr miss latency
system.cpu.dcache.demand_avg_mshr_miss_latency::total 30574.238815                       # average overall mshr miss latency
system.cpu.dcache.overall_avg_mshr_miss_latency::cpu.data 30574.238815                       # average overall mshr miss latency
system.cpu.dcache.overall_avg_mshr_miss_latency::total 30574.238815                       # average overall mshr miss latency
system.cpu.dcache.ReadReq_avg_mshr_uncacheable_latency::cpu.data 221975.977891                       # average ReadReq mshr uncacheable latency
system.cpu.dcache.ReadReq_avg_mshr_uncacheable_latency::total 221975.977891                       # average ReadReq mshr uncacheable latency
system.cpu.dcache.overall_avg_mshr_uncacheable_latency::cpu.data 90118.670886                       # average overall mshr uncacheable latency
system.cpu.dcache.overall_avg_mshr_uncacheable_latency::total 90118.670886                       # average overall mshr uncacheable latency
system.cpu.icache.tags.pwrStateResidencyTicks::UNDEFINED 2444146476500                       # Cumulative time (in ticks) in various power states
system.cpu.icache.tags.replacements           2496310                       # number of replacements
system.cpu.icache.tags.tagsinuse           511.164835                       # Cycle average of tags in use
system.cpu.icache.tags.total_refs            88954249                       # Total number of references to valid blocks.
system.cpu.icache.tags.sampled_refs           2496310                       # Sample count of references to valid blocks.
system.cpu.icache.tags.avg_refs             35.634296                       # Average number of references to valid blocks.
system.cpu.icache.tags.warmup_cycle       39985698500                       # Cycle when the warmup percentage was hit.
system.cpu.icache.tags.occ_blocks::cpu.inst   511.164835                       # Average occupied blocks per requestor
system.cpu.icache.tags.occ_percent::cpu.inst     0.998369                       # Average percentage of cache occupancy
system.cpu.icache.tags.occ_percent::total     0.998369                       # Average percentage of cache occupancy
system.cpu.icache.tags.occ_task_id_blocks::1024          512                       # Occupied blocks per task id
system.cpu.icache.tags.age_task_id_blocks_1024::0          193                       # Occupied blocks per task id
system.cpu.icache.tags.age_task_id_blocks_1024::1           24                       # Occupied blocks per task id
system.cpu.icache.tags.age_task_id_blocks_1024::2          187                       # Occupied blocks per task id
system.cpu.icache.tags.age_task_id_blocks_1024::3          108                       # Occupied blocks per task id
system.cpu.icache.tags.occ_task_id_percent::1024            1                       # Percentage of cache occupancy per task id
system.cpu.icache.tags.tag_accesses         185582137                       # Number of tag accesses
system.cpu.icache.tags.data_accesses        185582137                       # Number of data accesses
system.cpu.icache.pwrStateResidencyTicks::UNDEFINED 2444146476500                       # Cumulative time (in ticks) in various power states
system.cpu.icache.ReadReq_hits::cpu.inst     89045513                       # number of ReadReq hits
system.cpu.icache.ReadReq_hits::total        89045513                       # number of ReadReq hits
system.cpu.icache.demand_hits::cpu.inst      89045513                       # number of demand (read+write) hits
system.cpu.icache.demand_hits::total         89045513                       # number of demand (read+write) hits
system.cpu.icache.overall_hits::cpu.inst     89045513                       # number of overall hits
system.cpu.icache.overall_hits::total        89045513                       # number of overall hits
system.cpu.icache.ReadReq_misses::cpu.inst      2497037                       # number of ReadReq misses
system.cpu.icache.ReadReq_misses::total       2497037                       # number of ReadReq misses
system.cpu.icache.demand_misses::cpu.inst      2497037                       # number of demand (read+write) misses
system.cpu.icache.demand_misses::total        2497037                       # number of demand (read+write) misses
system.cpu.icache.overall_misses::cpu.inst      2497037                       # number of overall misses
system.cpu.icache.overall_misses::total       2497037                       # number of overall misses
system.cpu.icache.ReadReq_miss_latency::cpu.inst  35662314500                       # number of ReadReq miss cycles
system.cpu.icache.ReadReq_miss_latency::total  35662314500                       # number of ReadReq miss cycles
system.cpu.icache.demand_miss_latency::cpu.inst  35662314500                       # number of demand (read+write) miss cycles
system.cpu.icache.demand_miss_latency::total  35662314500                       # number of demand (read+write) miss cycles
system.cpu.icache.overall_miss_latency::cpu.inst  35662314500                       # number of overall miss cycles
system.cpu.icache.overall_miss_latency::total  35662314500                       # number of overall miss cycles
system.cpu.icache.ReadReq_accesses::cpu.inst     91542550                       # number of ReadReq accesses(hits+misses)
system.cpu.icache.ReadReq_accesses::total     91542550                       # number of ReadReq accesses(hits+misses)
system.cpu.icache.demand_accesses::cpu.inst     91542550                       # number of demand (read+write) accesses
system.cpu.icache.demand_accesses::total     91542550                       # number of demand (read+write) accesses
system.cpu.icache.overall_accesses::cpu.inst     91542550                       # number of overall (read+write) accesses
system.cpu.icache.overall_accesses::total     91542550                       # number of overall (read+write) accesses
system.cpu.icache.ReadReq_miss_rate::cpu.inst     0.027277                       # miss rate for ReadReq accesses
system.cpu.icache.ReadReq_miss_rate::total     0.027277                       # miss rate for ReadReq accesses
system.cpu.icache.demand_miss_rate::cpu.inst     0.027277                       # miss rate for demand accesses
system.cpu.icache.demand_miss_rate::total     0.027277                       # miss rate for demand accesses
system.cpu.icache.overall_miss_rate::cpu.inst     0.027277                       # miss rate for overall accesses
system.cpu.icache.overall_miss_rate::total     0.027277                       # miss rate for overall accesses
system.cpu.icache.ReadReq_avg_miss_latency::cpu.inst 14281.852652                       # average ReadReq miss latency
system.cpu.icache.ReadReq_avg_miss_latency::total 14281.852652                       # average ReadReq miss latency
system.cpu.icache.demand_avg_miss_latency::cpu.inst 14281.852652                       # average overall miss latency
system.cpu.icache.demand_avg_miss_latency::total 14281.852652                       # average overall miss latency
system.cpu.icache.overall_avg_miss_latency::cpu.inst 14281.852652                       # average overall miss latency
system.cpu.icache.overall_avg_miss_latency::total 14281.852652                       # average overall miss latency
system.cpu.icache.blocked_cycles::no_mshrs            0                       # number of cycles access was blocked
system.cpu.icache.blocked_cycles::no_targets            0                       # number of cycles access was blocked
system.cpu.icache.blocked::no_mshrs                 0                       # number of cycles access was blocked
system.cpu.icache.blocked::no_targets               0                       # number of cycles access was blocked
[...]
system.l2.overall_avg_mshr_uncacheable_latency::total 120426.374651                       # average overall mshr uncacheable latency
system.membus.snoop_filter.tot_requests         64933                       # Total number of requests made to the snoop filter.
system.membus.snoop_filter.hit_single_requests        37469                       # Number of requests hitting in the snoop filter with a single holder of the requested data.
system.membus.snoop_filter.hit_multi_requests           27                       # Number of requests hitting in the snoop filter with multiple (>1) holders of the requested data.
system.membus.snoop_filter.tot_snoops               0                       # Total number of snoops made to the snoop filter.
system.membus.snoop_filter.hit_single_snoops            0                       # Number of snoops hitting in the snoop filter with a single holder of the requested data.
system.membus.snoop_filter.hit_multi_snoops            0                       # Number of snoops hitting in the snoop filter with multiple (>1) holders of the requested data.
system.membus.pwrStateResidencyTicks::UNDEFINED   5098252000                       # Cumulative time (in ticks) in various power states
system.membus.trans_dist::ReadReq                 610                       # Transaction distribution
system.membus.trans_dist::ReadResp               4112                       # Transaction distribution
system.membus.trans_dist::WriteReq                463                       # Transaction distribution
system.membus.trans_dist::WriteResp               463                       # Transaction distribution
system.membus.trans_dist::WritebackDirty        24252                       # Transaction distribution
system.membus.trans_dist::CleanEvict             3212                       # Transaction distribution
system.membus.trans_dist::UpgradeReq               15                       # Transaction distribution
system.membus.trans_dist::ReadExReq             11290                       # Transaction distribution
system.membus.trans_dist::ReadExResp            11290                       # Transaction distribution
system.membus.trans_dist::ReadSharedReq          3502                       # Transaction distribution
system.membus.trans_dist::InvalidateReq         22656                       # Transaction distribution
system.membus.trans_dist::InvalidateResp         9984                       # Transaction distribution
system.membus.pkt_count_system.iocache.mem_side::system.mem_ctrls.port        45366                       # Packet count per connected master and slave (bytes)
system.membus.pkt_count_system.iocache.mem_side::total        45366                       # Packet count per connected master and slave (bytes)
system.membus.pkt_count_system.l2.mem_side::system.bridge.slave         2146                       # Packet count per connected master and slave (bytes)
system.membus.pkt_count_system.l2.mem_side::system.mem_ctrls.port        34326                       # Packet count per connected master and slave (bytes)
system.membus.pkt_count_system.l2.mem_side::total        36472                       # Packet count per connected master and slave (bytes)
system.membus.pkt_count::total                  81838                       # Packet count per connected master and slave (bytes)
system.membus.pkt_size_system.iocache.mem_side::system.mem_ctrls.port       724992                       # Cumulative packet size per connected master and slave (bytes)
system.membus.pkt_size_system.iocache.mem_side::total       724992                       # Cumulative packet size per connected master and slave (bytes)
system.membus.pkt_size_system.l2.mem_side::system.bridge.slave         1727                       # Cumulative packet size per connected master and slave (bytes)
system.membus.pkt_size_system.l2.mem_side::system.mem_ctrls.port       523552                       # Cumulative packet size per connected master and slave (bytes)
system.membus.pkt_size_system.l2.mem_side::total       525279                       # Cumulative packet size per connected master and slave (bytes)
system.membus.pkt_size::total                 1250271                       # Cumulative packet size per connected master and slave (bytes)
system.membus.snoops                            10011                       # Total snoops (count)
system.membus.snoopTraffic                        864                       # Total snoop traffic (bytes)
system.membus.snoop_fanout::samples             38536                       # Request fanout histogram
system.membus.snoop_fanout::mean             0.259783                       # Request fanout histogram
system.membus.snoop_fanout::stdev            0.438521                       # Request fanout histogram
system.membus.snoop_fanout::underflows              0      0.00%      0.00% # Request fanout histogram
system.membus.snoop_fanout::0                   28525     74.02%     74.02% # Request fanout histogram
system.membus.snoop_fanout::1                   10011     25.98%    100.00% # Request fanout histogram
system.membus.snoop_fanout::2                       0      0.00%    100.00% # Request fanout histogram
system.membus.snoop_fanout::overflows               0      0.00%    100.00% # Request fanout histogram
system.membus.snoop_fanout::min_value               0                       # Request fanout histogram
system.membus.snoop_fanout::max_value               1                       # Request fanout histogram
system.membus.snoop_fanout::total               38536                       # Request fanout histogram
system.membus.reqLayer0.occupancy             1834500                       # Layer occupancy (ticks)
system.membus.reqLayer0.utilization               0.0                       # Layer utilization (%)
system.membus.reqLayer1.occupancy           113455729                       # Layer occupancy (ticks)
system.membus.reqLayer1.utilization               2.2                       # Layer utilization (%)
system.membus.respLayer1.occupancy           10435041                       # Layer occupancy (ticks)
system.membus.respLayer1.utilization              0.2                       # Layer utilization (%)
system.membus.respLayer2.occupancy           50112250                       # Layer occupancy (ticks)
system.membus.respLayer2.utilization              1.0                       # Layer utilization (%)
system.membus.badaddr_responder.pwrStateResidencyTicks::UNDEFINED   5098252000                       # Cumulative time (in ticks) in various power states
system.tol2bus.snoop_filter.tot_requests       219042                       # Total number of requests made to the snoop filter.
system.tol2bus.snoop_filter.hit_single_requests       109525                       # Number of requests hitting in the snoop filter with a single holder of the requested data.
system.tol2bus.snoop_filter.hit_multi_requests          344                       # Number of requests hitting in the snoop filter with multiple (>1) holders of the requested data.
system.tol2bus.snoop_filter.tot_snoops             60                       # Total number of snoops made to the snoop filter.
system.tol2bus.snoop_filter.hit_single_snoops           60                       # Number of snoops hitting in the snoop filter with a single holder of the requested data.
system.tol2bus.snoop_filter.hit_multi_snoops            0                       # Number of snoops hitting in the snoop filter with multiple (>1) holders of the requested data.
system.tol2bus.pwrStateResidencyTicks::UNDEFINED   5098252000                       # Cumulative time (in ticks) in various power states
system.tol2bus.trans_dist::ReadReq                610                       # Transaction distribution
system.tol2bus.trans_dist::ReadResp             82841                       # Transaction distribution
system.tol2bus.trans_dist::WriteReq               463                       # Transaction distribution
system.tol2bus.trans_dist::WriteResp              463                       # Transaction distribution
system.tol2bus.trans_dist::WritebackDirty        41683                       # Transaction distribution
system.tol2bus.trans_dist::WritebackClean        59411                       # Transaction distribution
system.tol2bus.trans_dist::CleanEvict           13200                       # Transaction distribution
system.tol2bus.trans_dist::UpgradeReq               9                       # Transaction distribution
system.tol2bus.trans_dist::UpgradeResp              9                       # Transaction distribution
system.tol2bus.trans_dist::ReadExReq            27316                       # Transaction distribution
system.tol2bus.trans_dist::ReadExResp           27316                       # Transaction distribution
system.tol2bus.trans_dist::ReadCleanReq         59418                       # Transaction distribution
system.tol2bus.trans_dist::ReadSharedReq        22813                       # Transaction distribution
system.tol2bus.trans_dist::InvalidateReq         9984                       # Transaction distribution
system.tol2bus.pkt_count_system.cpu.icache.mem_side::system.l2.cpu_side       178245                       # Packet count per connected master and slave (bytes)
system.tol2bus.pkt_count_system.cpu.dcache.mem_side::system.l2.cpu_side       152497                       # Packet count per connected master and slave (bytes)
system.tol2bus.pkt_count::total                330742                       # Packet count per connected master and slave (bytes)
system.tol2bus.pkt_size_system.cpu.icache.mem_side::system.l2.cpu_side      3802464                       # Cumulative packet size per connected master and slave (bytes)
system.tol2bus.pkt_size_system.cpu.dcache.mem_side::system.l2.cpu_side      2888639                       # Cumulative packet size per connected master and slave (bytes)
system.tol2bus.pkt_size::total                6691103                       # Cumulative packet size per connected master and slave (bytes)
system.tol2bus.snoops                           14821                       # Total snoops (count)
system.tol2bus.snoopTraffic                     52000                       # Total snoop traffic (bytes)
system.tol2bus.snoop_fanout::samples           125394                       # Request fanout histogram
system.tol2bus.snoop_fanout::mean            0.003238                       # Request fanout histogram
system.tol2bus.snoop_fanout::stdev           0.056810                       # Request fanout histogram
system.tol2bus.snoop_fanout::underflows             0      0.00%      0.00% # Request fanout histogram
system.tol2bus.snoop_fanout::0                 124988     99.68%     99.68% # Request fanout histogram
system.tol2bus.snoop_fanout::1                    406      0.32%    100.00% # Request fanout histogram
system.tol2bus.snoop_fanout::2                      0      0.00%    100.00% # Request fanout histogram
system.tol2bus.snoop_fanout::overflows              0      0.00%    100.00% # Request fanout histogram
system.tol2bus.snoop_fanout::min_value              0                       # Request fanout histogram
system.tol2bus.snoop_fanout::max_value              1                       # Request fanout histogram
system.tol2bus.snoop_fanout::total             125394                       # Request fanout histogram
system.tol2bus.reqLayer0.occupancy          160038000                       # Layer occupancy (ticks)
system.tol2bus.reqLayer0.utilization              3.1                       # Layer utilization (%)
system.tol2bus.snoopLayer0.occupancy            34485                       # Layer occupancy (ticks)
system.tol2bus.snoopLayer0.utilization            0.0                       # Layer utilization (%)
system.tol2bus.respLayer0.occupancy          59418000                       # Layer occupancy (ticks)
system.tol2bus.respLayer0.utilization             1.2                       # Layer utilization (%)
system.tol2bus.respLayer1.occupancy          50948000                       # Layer occupancy (ticks)
system.tol2bus.respLayer1.utilization             1.0                       # Layer utilization (%)
system.tsunami.backdoor.pwrStateResidencyTicks::UNDEFINED   5098252000                       # Cumulative time (in ticks) in various power states
system.tsunami.cchip.pwrStateResidencyTicks::UNDEFINED   5098252000                       # Cumulative time (in ticks) in various power states
system.tsunami.pchip.pwrStateResidencyTicks::UNDEFINED   5098252000                       # Cumulative time (in ticks) in various power states
system.tsunami.ethernet.pwrStateResidencyTicks::UNDEFINED   5098252000                       # Cumulative time (in ticks) in various power states
system.tsunami.ethernet.descDMAReads                0                       # Number of descriptors the device read w/ DMA
system.tsunami.ethernet.descDMAWrites               0                       # Number of descriptors the device wrote w/ DMA
system.tsunami.ethernet.descDmaReadBytes            0                       # number of descriptor bytes read w/ DMA
system.tsunami.ethernet.descDmaWriteBytes            0                       # number of descriptor bytes write w/ DMA
system.tsunami.ethernet.postedSwi                   0                       # number of software interrupts posted to CPU
system.tsunami.ethernet.coalescedSwi              nan                       # average number of Swi's coalesced into each post
system.tsunami.ethernet.totalSwi                    0                       # total number of Swi written to ISR
system.tsunami.ethernet.postedRxIdle                0                       # number of rxIdle interrupts posted to CPU
system.tsunami.ethernet.coalescedRxIdle           nan                       # average number of RxIdle's coalesced into each post
system.tsunami.ethernet.totalRxIdle                 0                       # total number of RxIdle written to ISR
system.tsunami.ethernet.postedRxOk                  0                       # number of RxOk interrupts posted to CPU
system.tsunami.ethernet.coalescedRxOk             nan                       # average number of RxOk's coalesced into each post
system.tsunami.ethernet.totalRxOk                   0                       # total number of RxOk written to ISR
system.tsunami.ethernet.postedRxDesc                0                       # number of RxDesc interrupts posted to CPU
system.tsunami.ethernet.coalescedRxDesc           nan                       # average number of RxDesc's coalesced into each post
system.tsunami.ethernet.totalRxDesc                 0                       # total number of RxDesc written to ISR
system.tsunami.ethernet.postedTxOk                  0                       # number of TxOk interrupts posted to CPU
system.tsunami.ethernet.coalescedTxOk             nan                       # average number of TxOk's coalesced into each post
system.tsunami.ethernet.totalTxOk                   0                       # total number of TxOk written to ISR
system.tsunami.ethernet.postedTxIdle                0                       # number of TxIdle interrupts posted to CPU
system.tsunami.ethernet.coalescedTxIdle           nan                       # average number of TxIdle's coalesced into each post
system.tsunami.ethernet.totalTxIdle                 0                       # total number of TxIdle written to ISR
system.tsunami.ethernet.postedTxDesc                0                       # number of TxDesc interrupts posted to CPU
system.tsunami.ethernet.coalescedTxDesc           nan                       # average number of TxDesc's coalesced into each post
system.tsunami.ethernet.totalTxDesc                 0                       # total number of TxDesc written to ISR
system.tsunami.ethernet.postedRxOrn                 0                       # number of RxOrn posted to CPU
system.tsunami.ethernet.coalescedRxOrn            nan                       # average number of RxOrn's coalesced into each post
system.tsunami.ethernet.totalRxOrn                  0                       # total number of RxOrn written to ISR
system.tsunami.ethernet.coalescedTotal            nan                       # average number of interrupts coalesced into each post
system.tsunami.ethernet.postedInterrupts            0                       # number of posts to CPU
system.tsunami.ethernet.droppedPackets              0                       # number of packets dropped
system.tsunami.fake_OROM.pwrStateResidencyTicks::UNDEFINED   5098252000                       # Cumulative time (in ticks) in various power states
system.tsunami.fake_ata0.pwrStateResidencyTicks::UNDEFINED   5098252000                       # Cumulative time (in ticks) in various power states
system.tsunami.fake_ata1.pwrStateResidencyTicks::UNDEFINED   5098252000                       # Cumulative time (in ticks) in various power states
system.tsunami.fake_pnp_addr.pwrStateResidencyTicks::UNDEFINED   5098252000                       # Cumulative time (in ticks) in various power states
system.tsunami.fake_pnp_read0.pwrStateResidencyTicks::UNDEFINED   5098252000                       # Cumulative time (in ticks) in various power states
system.tsunami.fake_pnp_read1.pwrStateResidencyTicks::UNDEFINED   5098252000                       # Cumulative time (in ticks) in various power states
system.tsunami.fake_pnp_read2.pwrStateResidencyTicks::UNDEFINED   5098252000                       # Cumulative time (in ticks) in various power states
system.tsunami.fake_pnp_read3.pwrStateResidencyTicks::UNDEFINED   5098252000                       # Cumulative time (in ticks) in various power states
system.tsunami.fake_pnp_read4.pwrStateResidencyTicks::UNDEFINED   5098252000                       # Cumulative time (in ticks) in various power states
system.tsunami.fake_pnp_read5.pwrStateResidencyTicks::UNDEFINED   5098252000                       # Cumulative time (in ticks) in various power states
system.tsunami.fake_pnp_read6.pwrStateResidencyTicks::UNDEFINED   5098252000                       # Cumulative time (in ticks) in various power states
system.tsunami.fake_pnp_read7.pwrStateResidencyTicks::UNDEFINED   5098252000                       # Cumulative time (in ticks) in various power states
system.tsunami.fake_pnp_write.pwrStateResidencyTicks::UNDEFINED   5098252000                       # Cumulative time (in ticks) in various power states
system.tsunami.fake_ppc.pwrStateResidencyTicks::UNDEFINED   5098252000                       # Cumulative time (in ticks) in various power states
system.tsunami.fake_sm_chip.pwrStateResidencyTicks::UNDEFINED   5098252000                       # Cumulative time (in ticks) in various power states
system.tsunami.fake_uart1.pwrStateResidencyTicks::UNDEFINED   5098252000                       # Cumulative time (in ticks) in various power states
system.tsunami.fake_uart2.pwrStateResidencyTicks::UNDEFINED   5098252000                       # Cumulative time (in ticks) in various power states
system.tsunami.fake_uart3.pwrStateResidencyTicks::UNDEFINED   5098252000                       # Cumulative time (in ticks) in various power states
system.tsunami.fake_uart4.pwrStateResidencyTicks::UNDEFINED   5098252000                       # Cumulative time (in ticks) in various power states
system.tsunami.fb.pwrStateResidencyTicks::UNDEFINED   5098252000                       # Cumulative time (in ticks) in various power states
system.tsunami.ide.pwrStateResidencyTicks::UNDEFINED   5098252000                       # Cumulative time (in ticks) in various power states
system.tsunami.io.pwrStateResidencyTicks::UNDEFINED   5098252000                       # Cumulative time (in ticks) in various power states
system.tsunami.uart.pwrStateResidencyTicks::UNDEFINED   5098252000                       # Cumulative time (in ticks) in various power states

---------- End Simulation Statistics   ----------
