---------- Begin Simulation Statistics ----------
sim_seconds                                  0.005098                       # Number of seconds simulated
sim_ticks                                  5098252000                       # Number of ticks simulated
system.cpu.dcache.tags.replacements             50102                       # number of replacements
system.cpu.dcache.tags.total_refs              562351                       # Total number of references to valid blocks.
system.cpu.dcache.tags.avg_refs             10.999315                       # Average number of references to valid blocks.
system.cpu.dcache.tags.occ_percent::total            1                       # Average percentage of cache occupancy
system.cpu.dcache.tags.data_accesses         19003126                       # Number of data accesses
system.cpu.dcache.ReadReq_hits::total          304538                       # number of ReadReq hits
system.cpu.dcache.WriteReq_hits::total         225894                       # number of WriteReq hits
system.cpu.dcache.overall_hits::total          530432                       # number of overall hits
system.cpu.dcache.ReadReq_misses::total         22106                       # number of ReadReq misses
system.cpu.dcache.overall_misses::total         49431                       # number of overall misses
system.cpu.dcache.ReadReq_miss_rate::total     0.067676                       # miss rate for ReadReq accesses
system.cpu.dcache.WriteReq_miss_rate::total     0.107911                       # miss rate for WriteReq accesses
system.cpu.dcache.overall_miss_rate::total     0.085246                       # miss rate for overall accesses
system.cpu.dcache.writebacks::total             40087                       # number of writebacks
system.l2.tags.replacements                      4781                       # number of replacements
system.l2.tags.total_refs                     2493118                       # Total number of references to valid blocks.
system.l2.tags.avg_refs                     66.396389                       # Average number of references to valid blocks.
system.l2.tags.occ_percent::total            0.886259                       # Average percentage of cache occupancy
system.l2.tags.data_accesses                112120237                       # Number of data accesses
system.l2.overall_hits::total                   94746                       # number of overall hits
system.l2.overall_misses::total                 14772                       # number of overall misses
system.l2.overall_miss_rate::total           0.134882                       # miss rate for overall accesses
system.l2.writebacks::total                      1596                       # number of writebacks
---------- End Simulation Statistics   ----------
