---------- Begin Simulation Statistics ----------
sim_seconds                                  0.006963                       # Number of seconds simulated
sim_ticks                                  6963063000                       # Number of ticks simulated
system.cpu.dcache.tags.replacements             30593                       # number of replacements
system.cpu.dcache.tags.total_refs              565026                       # Total number of references to valid blocks.
system.cpu.dcache.tags.avg_refs             18.392175                       # Average number of references to valid blocks.
system.cpu.dcache.tags.occ_percent::total            1                       # Average percentage of cache occupancy
system.cpu.dcache.tags.data_accesses         18831553                       # Number of data accesses
system.cpu.dcache.ReadReq_hits::total          301090                       # number of ReadReq hits
system.cpu.dcache.WriteReq_hits::total         244357                       # number of WriteReq hits
system.cpu.dcache.overall_hits::total          545447                       # number of overall hits
system.cpu.dcache.ReadReq_misses::total         21432                       # number of ReadReq misses
system.cpu.dcache.overall_misses::total         29788                       # number of overall misses
system.cpu.dcache.ReadReq_miss_rate::total     0.066451                       # miss rate for ReadReq accesses
system.cpu.dcache.WriteReq_miss_rate::total     0.033065                       # miss rate for WriteReq accesses
system.cpu.dcache.overall_miss_rate::total     0.051784                       # miss rate for overall accesses
system.cpu.dcache.writebacks::total             14398                       # number of writebacks
system.l2.tags.replacements                     42569                       # number of replacements
system.l2.tags.total_refs                      103782                       # Total number of references to valid blocks.
system.l2.tags.avg_refs                      2.408997                       # Average number of references to valid blocks.
system.l2.tags.occ_percent::total                   1                       # Average percentage of cache occupancy
system.l2.tags.data_accesses                  4619785                       # Number of data accesses
system.l2.overall_hits::total                   31502                       # number of overall hits
system.l2.overall_misses::total                 40122                       # number of overall misses
system.l2.overall_miss_rate::total           0.560175                       # miss rate for overall accesses
system.l2.writebacks::total                     10567                       # number of writebacks
---------- End Simulation Statistics   ----------
