
---------- Begin Simulation Statistics ----------
sim_seconds                                  2.638417                       # Number of seconds simulated
sim_ticks                                2638417178500                       # Number of ticks simulated
final_tick                               2638417178500                       # Number of ticks from beginning of simulation (restored from checkpoints and never reset)
sim_freq                                 1000000000000                       # Frequency of simulated ticks
host_inst_rate                                 190473                       # Simulator instruction rate (inst/s)
host_op_rate                                   190473                       # Simulator op (including micro ops) rate (op/s)
host_tick_rate                             5155853058                       # Simulator tick rate (ticks/s)
host_mem_usage                                 732004                       # Number of bytes of host memory used
host_seconds                                   511.73                       # Real time elapsed on the host
sim_insts                                    97471040                       # Number of instructions simulated
sim_ops                                      97471040                       # Number of ops (including micro ops) simulated
system.voltage_domain.voltage                       1                       # Voltage in Volts
system.clk_domain.clock                          1000                       # Clock period in ticks
system.mem_ctrls.pwrStateResidencyTicks::UNDEFINED 2638417178500                       # Cumulative time (in ticks) in various power states
system.mem_ctrls.bytes_read::cpu.inst       104417792                       # Number of bytes read from this memory
system.mem_ctrls.bytes_read::cpu.data       308263040                       # Number of bytes read from this memory
system.mem_ctrls.bytes_read::tsunami.ide         3968                       # Number of bytes read from this memory
system.mem_ctrls.bytes_read::total          412684800                       # Number of bytes read from this memory
system.mem_ctrls.bytes_inst_read::cpu.inst    104417792                       # Number of instructions bytes read from this memory
system.mem_ctrls.bytes_inst_read::total     104417792                       # Number of instructions bytes read from this memory
system.mem_ctrls.bytes_written::writebacks     54279424                       # Number of bytes written to this memory
system.mem_ctrls.bytes_written::total        54279424                       # Number of bytes written to this memory
system.mem_ctrls.num_reads::cpu.inst           815764                       # Number of read requests responded to by this memory
system.mem_ctrls.num_reads::cpu.data          2408305                       # Number of read requests responded to by this memory
system.mem_ctrls.num_reads::tsunami.ide            31                       # Number of read requests responded to by this memory
system.mem_ctrls.num_reads::total             3224100                       # Number of read requests responded to by this memory
system.mem_ctrls.num_writes::writebacks        424058                       # Number of write requests responded to by this memory
system.mem_ctrls.num_writes::total             424058                       # Number of write requests responded to by this memory
system.mem_ctrls.bw_read::cpu.inst           39575922                       # Total read bandwidth from this memory (bytes/s)
system.mem_ctrls.bw_read::cpu.data          116836353                       # Total read bandwidth from this memory (bytes/s)
system.mem_ctrls.bw_read::tsunami.ide            1504                       # Total read bandwidth from this memory (bytes/s)
system.mem_ctrls.bw_read::total             156413778                       # Total read bandwidth from this memory (bytes/s)
system.mem_ctrls.bw_inst_read::cpu.inst      39575922                       # Instruction read bandwidth from this memory (bytes/s)
system.mem_ctrls.bw_inst_read::total         39575922                       # Instruction read bandwidth from this memory (bytes/s)
system.mem_ctrls.bw_write::writebacks        20572722                       # Write bandwidth from this memory (bytes/s)
system.mem_ctrls.bw_write::total             20572722                       # Write bandwidth from this memory (bytes/s)
system.mem_ctrls.bw_total::writebacks        20572722                       # Total bandwidth to/from this memory (bytes/s)
system.mem_ctrls.bw_total::cpu.inst          39575922                       # Total bandwidth to/from this memory (bytes/s)
system.mem_ctrls.bw_total::cpu.data         116836353                       # Total bandwidth to/from this memory (bytes/s)
system.mem_ctrls.bw_total::tsunami.ide           1504                       # Total bandwidth to/from this memory (bytes/s)
system.mem_ctrls.bw_total::total            176986501                       # Total bandwidth to/from this memory (bytes/s)
system.mem_ctrls.readReqs                     3224100                       # Number of read requests accepted
system.mem_ctrls.writeReqs                     424058                       # Number of write requests accepted
system.mem_ctrls.readBursts                   6448200                       # Number of DRAM read bursts, including those serviced by the write queue
system.mem_ctrls.writeBursts                   848116                       # Number of DRAM write bursts, including those merged in the write queue
system.mem_ctrls.bytesReadDRAM              410132160                       # Total number of bytes read from DRAM
system.mem_ctrls.bytesReadWrQ                 2552640                       # Total number of bytes read from write queue
system.mem_ctrls.bytesWritten                53986688                       # Total number of bytes written to DRAM
system.mem_ctrls.bytesReadSys               412684800                       # Total read bytes from the system interface side
system.mem_ctrls.bytesWrittenSys             54279424                       # Total written bytes from the system interface side
system.mem_ctrls.servicedByWrQ                  39885                       # Number of DRAM read bursts serviced by the write queue
system.mem_ctrls.mergedWrBursts                  4555                       # Number of DRAM write bursts merged with an existing one
system.mem_ctrls.neitherReadNorWriteReqs            0                       # Number of requests that are neither read nor write
system.mem_ctrls.perBankRdBursts::0            470104                       # Per bank write bursts
system.mem_ctrls.perBankRdBursts::1            281425                       # Per bank write bursts
system.mem_ctrls.perBankRdBursts::2            409426                       # Per bank write bursts
system.mem_ctrls.perBankRdBursts::3            377342                       # Per bank write bursts
system.mem_ctrls.perBankRdBursts::4            272511                       # Per bank write bursts
system.mem_ctrls.perBankRdBursts::5            278045                       # Per bank write bursts
system.mem_ctrls.perBankRdBursts::6            424496                       # Per bank write bursts
system.mem_ctrls.perBankRdBursts::7            306361                       # Per bank write bursts
system.mem_ctrls.perBankRdBursts::8            375527                       # Per bank write bursts
system.mem_ctrls.perBankRdBursts::9            549387                       # Per bank write bursts
system.mem_ctrls.perBankRdBursts::10           372603                       # Per bank write bursts
system.mem_ctrls.perBankRdBursts::11           572580                       # Per bank write bursts
system.mem_ctrls.perBankRdBursts::12           435903                       # Per bank write bursts
system.mem_ctrls.perBankRdBursts::13           510964                       # Per bank write bursts
system.mem_ctrls.perBankRdBursts::14           390899                       # Per bank write bursts
system.mem_ctrls.perBankRdBursts::15           380742                       # Per bank write bursts
system.mem_ctrls.perBankWrBursts::0             41270                       # Per bank write bursts
system.mem_ctrls.perBankWrBursts::1             67026                       # Per bank write bursts
system.mem_ctrls.perBankWrBursts::2             36507                       # Per bank write bursts
system.mem_ctrls.perBankWrBursts::3             29402                       # Per bank write bursts
system.mem_ctrls.perBankWrBursts::4             31071                       # Per bank write bursts
system.mem_ctrls.perBankWrBursts::5             69420                       # Per bank write bursts
system.mem_ctrls.perBankWrBursts::6             62130                       # Per bank write bursts
system.mem_ctrls.perBankWrBursts::7             54707                       # Per bank write bursts
system.mem_ctrls.perBankWrBursts::8             46789                       # Per bank write bursts
system.mem_ctrls.perBankWrBursts::9             57440                       # Per bank write bursts
system.mem_ctrls.perBankWrBursts::10            46379                       # Per bank write bursts
system.mem_ctrls.perBankWrBursts::11            55193                       # Per bank write bursts
system.mem_ctrls.perBankWrBursts::12            51862                       # Per bank write bursts
system.mem_ctrls.perBankWrBursts::13            60787                       # Per bank write bursts
system.mem_ctrls.perBankWrBursts::14            45196                       # Per bank write bursts
system.mem_ctrls.perBankWrBursts::15            88363                       # Per bank write bursts
system.mem_ctrls.numRdRetry                        11                       # Number of times read queue was full causing retry
system.mem_ctrls.numWrRetry                      5689                       # Number of times write queue was full causing retry
system.mem_ctrls.totGap                  2638417165500                       # Total gap between requests
system.mem_ctrls.readPktSize::0                     0                       # Read request sizes (log2)
system.mem_ctrls.readPktSize::1                     0                       # Read request sizes (log2)
system.mem_ctrls.readPktSize::2                     0                       # Read request sizes (log2)
system.mem_ctrls.readPktSize::3                     0                       # Read request sizes (log2)
system.mem_ctrls.readPktSize::4                     0                       # Read request sizes (log2)
system.mem_ctrls.readPktSize::5                     0                       # Read request sizes (log2)
system.mem_ctrls.readPktSize::6               6448200                       # Read request sizes (log2)
system.mem_ctrls.writePktSize::0                    0                       # Write request sizes (log2)
system.mem_ctrls.writePktSize::1                    0                       # Write request sizes (log2)
system.mem_ctrls.writePktSize::2                    0                       # Write request sizes (log2)
system.mem_ctrls.writePktSize::3                    0                       # Write request sizes (log2)
system.mem_ctrls.writePktSize::4                    0                       # Write request sizes (log2)
system.mem_ctrls.writePktSize::5                    0                       # Write request sizes (log2)
system.mem_ctrls.writePktSize::6               848116                       # Write request sizes (log2)
system.mem_ctrls.rdQLenPdf::0                 3204764                       # What read queue length does an incoming req see
system.mem_ctrls.rdQLenPdf::1                 3203485                       # What read queue length does an incoming req see
system.mem_ctrls.rdQLenPdf::2                       2                       # What read queue length does an incoming req see
system.mem_ctrls.rdQLenPdf::3                       2                       # What read queue length does an incoming req see
system.mem_ctrls.rdQLenPdf::4                       1                       # What read queue length does an incoming req see
system.mem_ctrls.rdQLenPdf::5                       1                       # What read queue length does an incoming req see
system.mem_ctrls.rdQLenPdf::6                       1                       # What read queue length does an incoming req see
system.mem_ctrls.rdQLenPdf::7                       1                       # What read queue length does an incoming req see
system.mem_ctrls.rdQLenPdf::8                       1                       # What read queue length does an incoming req see
system.mem_ctrls.rdQLenPdf::9                       1                       # What read queue length does an incoming req see
system.mem_ctrls.rdQLenPdf::10                      1                       # What read queue length does an incoming req see
system.mem_ctrls.rdQLenPdf::11                      1                       # What read queue length does an incoming req see
system.mem_ctrls.rdQLenPdf::12                      1                       # What read queue length does an incoming req see
system.mem_ctrls.rdQLenPdf::13                      1                       # What read queue length does an incoming req see
system.mem_ctrls.rdQLenPdf::14                      1                       # What read queue length does an incoming req see
system.mem_ctrls.rdQLenPdf::15                      1                       # What read queue length does an incoming req see
system.mem_ctrls.rdQLenPdf::16                      1                       # What read queue length does an incoming req see
system.mem_ctrls.rdQLenPdf::17                      1                       # What read queue length does an incoming req see
system.mem_ctrls.rdQLenPdf::18                      1                       # What read queue length does an incoming req see
system.mem_ctrls.rdQLenPdf::19                      1                       # What read queue length does an incoming req see
system.mem_ctrls.rdQLenPdf::20                      1                       # What read queue length does an incoming req see
system.mem_ctrls.rdQLenPdf::21                      1                       # What read queue length does an incoming req see
system.mem_ctrls.rdQLenPdf::22                      1                       # What read queue length does an incoming req see
system.mem_ctrls.rdQLenPdf::23                      1                       # What read queue length does an incoming req see
system.mem_ctrls.rdQLenPdf::24                      1                       # What read queue length does an incoming req see
system.mem_ctrls.rdQLenPdf::25                      1                       # What read queue length does an incoming req see
system.mem_ctrls.rdQLenPdf::26                      3                       # What read queue length does an incoming req see
system.mem_ctrls.rdQLenPdf::27                      3                       # What read queue length does an incoming req see
system.mem_ctrls.rdQLenPdf::28                      7                       # What read queue length does an incoming req see
system.mem_ctrls.rdQLenPdf::29                      8                       # What read queue length does an incoming req see
system.mem_ctrls.rdQLenPdf::30                     10                       # What read queue length does an incoming req see
system.mem_ctrls.rdQLenPdf::31                      9                       # What read queue length does an incoming req see
system.mem_ctrls.wrQLenPdf::0                       1                       # What write queue length does an incoming req see
system.mem_ctrls.wrQLenPdf::1                       1                       # What write queue length does an incoming req see
system.mem_ctrls.wrQLenPdf::2                       1                       # What write queue length does an incoming req see
system.mem_ctrls.wrQLenPdf::3                       1                       # What write queue length does an incoming req see
system.mem_ctrls.wrQLenPdf::4                       1                       # What write queue length does an incoming req see
system.mem_ctrls.wrQLenPdf::5                       1                       # What write queue length does an incoming req see
system.mem_ctrls.wrQLenPdf::6                       1                       # What write queue length does an incoming req see
system.mem_ctrls.wrQLenPdf::7                       1                       # What write queue length does an incoming req see
system.mem_ctrls.wrQLenPdf::8                       1                       # What write queue length does an incoming req see
system.mem_ctrls.wrQLenPdf::9                       1                       # What write queue length does an incoming req see
system.mem_ctrls.wrQLenPdf::10                      1                       # What write queue length does an incoming req see
system.mem_ctrls.wrQLenPdf::11                      1                       # What write queue length does an incoming req see
system.mem_ctrls.wrQLenPdf::12                      1                       # What write queue length does an incoming req see
system.mem_ctrls.wrQLenPdf::13                      1                       # What write queue length does an incoming req see
system.mem_ctrls.wrQLenPdf::14                      1                       # What write queue length does an incoming req see
system.mem_ctrls.wrQLenPdf::15                  12999                       # What write queue length does an incoming req see
system.mem_ctrls.wrQLenPdf::16                  14140                       # What write queue length does an incoming req see
system.mem_ctrls.wrQLenPdf::17                  42322                       # What write queue length does an incoming req see
system.mem_ctrls.wrQLenPdf::18                  47885                       # What write queue length does an incoming req see
system.mem_ctrls.wrQLenPdf::19                  48148                       # What write queue length does an incoming req see
system.mem_ctrls.wrQLenPdf::20                  48200                       # What write queue length does an incoming req see
system.mem_ctrls.wrQLenPdf::21                  48204                       # What write queue length does an incoming req see
system.mem_ctrls.wrQLenPdf::22                  48215                       # What write queue length does an incoming req see
system.mem_ctrls.wrQLenPdf::23                  48228                       # What write queue length does an incoming req see
system.mem_ctrls.wrQLenPdf::24                  48236                       # What write queue length does an incoming req see
system.mem_ctrls.wrQLenPdf::25                  48314                       # What write queue length does an incoming req see
system.mem_ctrls.wrQLenPdf::26                  48513                       # What write queue length does an incoming req see
system.mem_ctrls.wrQLenPdf::27                  48601                       # What write queue length does an incoming req see
system.mem_ctrls.wrQLenPdf::28                  48639                       # What write queue length does an incoming req see
system.mem_ctrls.wrQLenPdf::29                  49056                       # What write queue length does an incoming req see
system.mem_ctrls.wrQLenPdf::30                  49072                       # What write queue length does an incoming req see
system.mem_ctrls.wrQLenPdf::31                  48828                       # What write queue length does an incoming req see
system.mem_ctrls.wrQLenPdf::32                  48966                       # What write queue length does an incoming req see
system.mem_ctrls.wrQLenPdf::33                   7638                       # What write queue length does an incoming req see
system.mem_ctrls.wrQLenPdf::34                    586                       # What write queue length does an incoming req see
system.mem_ctrls.wrQLenPdf::35                    597                       # What write queue length does an incoming req see
system.mem_ctrls.wrQLenPdf::36                    539                       # What write queue length does an incoming req see
system.mem_ctrls.wrQLenPdf::37                    534                       # What write queue length does an incoming req see
system.mem_ctrls.wrQLenPdf::38                    432                       # What write queue length does an incoming req see
system.mem_ctrls.wrQLenPdf::39                    327                       # What write queue length does an incoming req see
system.mem_ctrls.wrQLenPdf::40                    315                       # What write queue length does an incoming req see
system.mem_ctrls.wrQLenPdf::41                    322                       # What write queue length does an incoming req see
system.mem_ctrls.wrQLenPdf::42                    355                       # What write queue length does an incoming req see
system.mem_ctrls.wrQLenPdf::43                    385                       # What write queue length does an incoming req see
system.mem_ctrls.wrQLenPdf::44                    386                       # What write queue length does an incoming req see
system.mem_ctrls.wrQLenPdf::45                    331                       # What write queue length does an incoming req see
system.mem_ctrls.wrQLenPdf::46                    298                       # What write queue length does an incoming req see
system.mem_ctrls.wrQLenPdf::47                    367                       # What write queue length does an incoming req see
system.mem_ctrls.wrQLenPdf::48                    393                       # What write queue length does an incoming req see
system.mem_ctrls.wrQLenPdf::49                    408                       # What write queue length does an incoming req see
system.mem_ctrls.wrQLenPdf::50                    411                       # What write queue length does an incoming req see
system.mem_ctrls.wrQLenPdf::51                    417                       # What write queue length does an incoming req see
system.mem_ctrls.wrQLenPdf::52                    428                       # What write queue length does an incoming req see
system.mem_ctrls.wrQLenPdf::53                    458                       # What write queue length does an incoming req see
system.mem_ctrls.wrQLenPdf::54                    525                       # What write queue length does an incoming req see
system.mem_ctrls.wrQLenPdf::55                    641                       # What write queue length does an incoming req see
system.mem_ctrls.wrQLenPdf::56                    617                       # What write queue length does an incoming req see
system.mem_ctrls.wrQLenPdf::57                    647                       # What write queue length does an incoming req see
system.mem_ctrls.wrQLenPdf::58                    699                       # What write queue length does an incoming req see
system.mem_ctrls.wrQLenPdf::59                    803                       # What write queue length does an incoming req see
system.mem_ctrls.wrQLenPdf::60                   1038                       # What write queue length does an incoming req see
system.mem_ctrls.wrQLenPdf::61                   1617                       # What write queue length does an incoming req see
system.mem_ctrls.wrQLenPdf::62                  12782                       # What write queue length does an incoming req see
system.mem_ctrls.wrQLenPdf::63                  11684                       # What write queue length does an incoming req see
system.mem_ctrls.bytesPerActivate::samples      1156249                       # Bytes accessed per row activation
system.mem_ctrls.bytesPerActivate::mean    401.399436                       # Bytes accessed per row activation
system.mem_ctrls.bytesPerActivate::gmean   281.504052                       # Bytes accessed per row activation
system.mem_ctrls.bytesPerActivate::stdev   343.872271                       # Bytes accessed per row activation
system.mem_ctrls.bytesPerActivate::0-127        19538      1.69%      1.69% # Bytes accessed per row activation
system.mem_ctrls.bytesPerActivate::128-255       475083     41.09%     42.78% # Bytes accessed per row activation
system.mem_ctrls.bytesPerActivate::256-383       215940     18.68%     61.45% # Bytes accessed per row activation
system.mem_ctrls.bytesPerActivate::384-511        94530      8.18%     69.63% # Bytes accessed per row activation
system.mem_ctrls.bytesPerActivate::512-639        50377      4.36%     73.99% # Bytes accessed per row activation
system.mem_ctrls.bytesPerActivate::640-767        38843      3.36%     77.35% # Bytes accessed per row activation
system.mem_ctrls.bytesPerActivate::768-895        26139      2.26%     79.61% # Bytes accessed per row activation
system.mem_ctrls.bytesPerActivate::896-1023        22619      1.96%     81.56% # Bytes accessed per row activation
system.mem_ctrls.bytesPerActivate::1024-1151       213180     18.44%    100.00% # Bytes accessed per row activation
system.mem_ctrls.bytesPerActivate::total      1156249                       # Bytes accessed per row activation
system.mem_ctrls.rdPerTurnAround::samples        50393                       # Reads before turning the bus around for writes
system.mem_ctrls.rdPerTurnAround::mean     127.166730                       # Reads before turning the bus around for writes
system.mem_ctrls.rdPerTurnAround::stdev   4607.269939                       # Reads before turning the bus around for writes
system.mem_ctrls.rdPerTurnAround::0-32767        50392    100.00%    100.00% # Reads before turning the bus around for writes
system.mem_ctrls.rdPerTurnAround::1.01581e+06-1.04858e+06            1      0.00%    100.00% # Reads before turning the bus around for writes
system.mem_ctrls.rdPerTurnAround::total         50393                       # Reads before turning the bus around for writes
system.mem_ctrls.wrPerTurnAround::samples        50393                       # Writes before turning the bus around for reads
system.mem_ctrls.wrPerTurnAround::mean      16.739269                       # Writes before turning the bus around for reads
system.mem_ctrls.wrPerTurnAround::gmean     16.673564                       # Writes before turning the bus around for reads
system.mem_ctrls.wrPerTurnAround::stdev      2.506046                       # Writes before turning the bus around for reads
system.mem_ctrls.wrPerTurnAround::16-23         50009     99.24%     99.24% # Writes before turning the bus around for reads
system.mem_ctrls.wrPerTurnAround::24-31           337      0.67%     99.91% # Writes before turning the bus around for reads
system.mem_ctrls.wrPerTurnAround::32-39            34      0.07%     99.97% # Writes before turning the bus around for reads
system.mem_ctrls.wrPerTurnAround::40-47             3      0.01%     99.98% # Writes before turning the bus around for reads
system.mem_ctrls.wrPerTurnAround::48-55             2      0.00%     99.98% # Writes before turning the bus around for reads
system.mem_ctrls.wrPerTurnAround::64-71             1      0.00%     99.99% # Writes before turning the bus around for reads
system.mem_ctrls.wrPerTurnAround::88-95             2      0.00%     99.99% # Writes before turning the bus around for reads
system.mem_ctrls.wrPerTurnAround::112-119            2      0.00%     99.99% # Writes before turning the bus around for reads
system.mem_ctrls.wrPerTurnAround::120-127            1      0.00%    100.00% # Writes before turning the bus around for reads
system.mem_ctrls.wrPerTurnAround::144-151            1      0.00%    100.00% # Writes before turning the bus around for reads
system.mem_ctrls.wrPerTurnAround::400-407            1      0.00%    100.00% # Writes before turning the bus around for reads
system.mem_ctrls.wrPerTurnAround::total         50393                       # Writes before turning the bus around for reads
system.mem_ctrls.totQLat                 121748587526                       # Total ticks spent queuing
system.mem_ctrls.totMemAccLat            241904493776                       # Total ticks spent from burst creation until serviced by the DRAM
system.mem_ctrls.totBusLat                32041575000                       # Total ticks spent in databus transfers
system.mem_ctrls.avgQLat                     18998.53                       # Average queueing delay per DRAM burst
system.mem_ctrls.avgBusLat                    5000.00                       # Average bus latency per DRAM burst
system.mem_ctrls.avgMemAccLat                37748.53                       # Average memory access latency per DRAM burst
system.mem_ctrls.avgRdBW                       155.45                       # Average DRAM read bandwidth in MiByte/s
system.mem_ctrls.avgWrBW                        20.46                       # Average achieved write bandwidth in MiByte/s
system.mem_ctrls.avgRdBWSys                    156.41                       # Average system read bandwidth in MiByte/s
system.mem_ctrls.avgWrBWSys                     20.57                       # Average system write bandwidth in MiByte/s
system.mem_ctrls.peakBW                      12800.00                       # Theoretical peak bandwidth in MiByte/s
system.mem_ctrls.busUtil                         1.37                       # Data bus utilization in percentage
system.mem_ctrls.busUtilRead                     1.21                       # Data bus utilization in percentage for reads
system.mem_ctrls.busUtilWrite                    0.16                       # Data bus utilization in percentage for writes
system.mem_ctrls.avgRdQLen                       2.00                       # Average read queue length when enqueuing
system.mem_ctrls.avgWrQLen                      24.29                       # Average write queue length when enqueuing
system.mem_ctrls.readRowHits                  5433504                       # Number of row buffer hits during reads
system.mem_ctrls.writeRowHits                  662101                       # Number of row buffer hits during writes
system.mem_ctrls.readRowHitRate                 84.79                       # Row buffer hit rate for reads
system.mem_ctrls.writeRowHitRate                78.49                       # Row buffer hit rate for writes
system.mem_ctrls.avgGap                     723219.00                       # Average gap between requests
system.mem_ctrls.pageHitRate                    84.06                       # Row buffer hit rate, read and write combined
system.mem_ctrls_0.actEnergy               3241938420                       # Energy for activate commands per rank (pJ)
system.mem_ctrls_0.preEnergy               1723131135                       # Energy for precharge commands per rank (pJ)
system.mem_ctrls_0.readEnergy             20132729400                       # Energy for read commands per rank (pJ)
system.mem_ctrls_0.writeEnergy             2043802260                       # Energy for write commands per rank (pJ)
system.mem_ctrls_0.refreshEnergy         32491099680.000004                       # Energy for refresh commands per rank (pJ)
system.mem_ctrls_0.actBackEnergy          42775120470                       # Energy for active background per rank (pJ)
system.mem_ctrls_0.preBackEnergy           1224098880                       # Energy for precharge background per rank (pJ)
system.mem_ctrls_0.actPowerDownEnergy    120716949540                       # Energy for active power-down per rank (pJ)
system.mem_ctrls_0.prePowerDownEnergy     14867536320                       # Energy for precharge power-down per rank (pJ)
system.mem_ctrls_0.selfRefreshEnergy     537963738120                       # Energy for self refresh per rank (pJ)
system.mem_ctrls_0.totalEnergy           777182907225                       # Total energy per rank (pJ)
system.mem_ctrls_0.averagePower            294.564072                       # Core power per rank (mW)
system.mem_ctrls_0.totalIdleTime         2541418346000                       # Total Idle time Per DRAM Rank
system.mem_ctrls_0.memoryStateTime::IDLE    947128250                       # Time in different power states
system.mem_ctrls_0.memoryStateTime::REF   13753912000                       # Time in different power states
system.mem_ctrls_0.memoryStateTime::SREF 2237970449000                       # Time in different power states
system.mem_ctrls_0.memoryStateTime::PRE_PDN  38718169000                       # Time in different power states
system.mem_ctrls_0.memoryStateTime::ACT   82297205500                       # Time in different power states
system.mem_ctrls_0.memoryStateTime::ACT_PDN 264730314750                       # Time in different power states
system.mem_ctrls_1.actEnergy               5013700860                       # Energy for activate commands per rank (pJ)
system.mem_ctrls_1.preEnergy               2664833820                       # Energy for precharge commands per rank (pJ)
system.mem_ctrls_1.readEnergy             25622639700                       # Energy for read commands per rank (pJ)
system.mem_ctrls_1.writeEnergy             2359486980                       # Energy for write commands per rank (pJ)
system.mem_ctrls_1.refreshEnergy         32091583680.000004                       # Energy for refresh commands per rank (pJ)
system.mem_ctrls_1.actBackEnergy          48813702180                       # Energy for active background per rank (pJ)
system.mem_ctrls_1.preBackEnergy           1109462880                       # Energy for precharge background per rank (pJ)
system.mem_ctrls_1.actPowerDownEnergy    117484138110                       # Energy for active power-down per rank (pJ)
system.mem_ctrls_1.prePowerDownEnergy     11918722080                       # Energy for precharge power-down per rank (pJ)
system.mem_ctrls_1.selfRefreshEnergy     538155374280                       # Energy for self refresh per rank (pJ)
system.mem_ctrls_1.totalEnergy           785235824100                       # Total energy per rank (pJ)
system.mem_ctrls_1.averagePower            297.616249                       # Core power per rank (mW)
system.mem_ctrls_1.totalIdleTime         2528477439000                       # Total Idle time Per DRAM Rank
system.mem_ctrls_1.memoryStateTime::IDLE    806807750                       # Time in different power states
system.mem_ctrls_1.memoryStateTime::REF   13582206000                       # Time in different power states
system.mem_ctrls_1.memoryStateTime::SREF 2239796502250                       # Time in different power states
system.mem_ctrls_1.memoryStateTime::PRE_PDN  31038595750                       # Time in different power states
system.mem_ctrls_1.memoryStateTime::ACT   95550725750                       # Time in different power states
system.mem_ctrls_1.memoryStateTime::ACT_PDN 257642341000                       # Time in different power states
system.pwrStateResidencyTicks::UNDEFINED 2638417178500                       # Cumulative time (in ticks) in various power states
system.bridge.pwrStateResidencyTicks::UNDEFINED 2638417178500                       # Cumulative time (in ticks) in various power states
system.cpu_voltage_domain.voltage                   1                       # Voltage in Volts
system.cpu_clk_domain.clock                       500                       # Clock period in ticks
system.cpu.dtb.fetch_hits                           0                       # ITB hits
system.cpu.dtb.fetch_misses                         0                       # ITB misses
system.cpu.dtb.fetch_acv                            0                       # ITB acv
system.cpu.dtb.fetch_accesses                       0                       # ITB accesses
system.cpu.dtb.read_hits                     17012626                       # DTB read hits
system.cpu.dtb.read_misses                      12434                       # DTB read misses
system.cpu.dtb.read_acv                            98                       # DTB read access violations
system.cpu.dtb.read_accesses                   817021                       # DTB read accesses
system.cpu.dtb.write_hits                     8895144                       # DTB write hits
system.cpu.dtb.write_misses                      1307                       # DTB write misses
system.cpu.dtb.write_acv                          169                       # DTB write access violations
system.cpu.dtb.write_accesses                  324494                       # DTB write accesses
system.cpu.dtb.data_hits                     25907770                       # DTB hits
system.cpu.dtb.data_misses                      13741                       # DTB misses
system.cpu.dtb.data_acv                           267                       # DTB access violations
system.cpu.dtb.data_accesses                  1141515                       # DTB accesses
system.cpu.itb.fetch_hits                     5687150                       # ITB hits
system.cpu.itb.fetch_misses                      6040                       # ITB misses
system.cpu.itb.fetch_acv                            1                       # ITB acv
system.cpu.itb.fetch_accesses                 5693190                       # ITB accesses
system.cpu.itb.read_hits                            0                       # DTB read hits
system.cpu.itb.read_misses                          0                       # DTB read misses
system.cpu.itb.read_acv                             0                       # DTB read access violations
system.cpu.itb.read_accesses                        0                       # DTB read accesses
system.cpu.itb.write_hits                           0                       # DTB write hits
system.cpu.itb.write_misses                         0                       # DTB write misses
system.cpu.itb.write_acv                            0                       # DTB write access violations
system.cpu.itb.write_accesses                       0                       # DTB write accesses
system.cpu.itb.data_hits                            0                       # DTB hits
system.cpu.itb.data_misses                          0                       # DTB misses
system.cpu.itb.data_acv                             0                       # DTB access violations
system.cpu.itb.data_accesses                        0                       # DTB accesses
system.cpu.numPwrStateTransitions               14130                       # Number of power state transitions
system.cpu.pwrStateClkGateDist::samples          7065                       # Distribution of time spent in the clock gated state
system.cpu.pwrStateClkGateDist::mean     310834771.832980                       # Distribution of time spent in the clock gated state
system.cpu.pwrStateClkGateDist::stdev    451895027.572457                       # Distribution of time spent in the clock gated state
system.cpu.pwrStateClkGateDist::1000-5e+10         7065    100.00%    100.00% # Distribution of time spent in the clock gated state
system.cpu.pwrStateClkGateDist::min_value       309000                       # Distribution of time spent in the clock gated state
system.cpu.pwrStateClkGateDist::max_value   2000000000                       # Distribution of time spent in the clock gated state
system.cpu.pwrStateClkGateDist::total            7065                       # Distribution of time spent in the clock gated state
system.cpu.pwrStateResidencyTicks::ON    442369515500                       # Cumulative time (in ticks) in various power states
system.cpu.pwrStateResidencyTicks::CLK_GATED 2196047663000                       # Cumulative time (in ticks) in various power states
system.cpu.numCycles                       5276834357                       # number of cpu cycles simulated
system.cpu.numWorkItemsStarted                      0                       # number of work items this cpu started
system.cpu.numWorkItemsCompleted                    0                       # number of work items this cpu completed
system.cpu.kern.inst.arm                            0                       # number of arm instructions executed
system.cpu.kern.inst.quiesce                     7065                       # number of quiesce instructions executed
system.cpu.kern.callpal::cserve                     1      0.00%      0.00% # number of callpals executed
system.cpu.kern.callpal::wrmces                     1      0.00%      0.00% # number of callpals executed
system.cpu.kern.callpal::wrfen                      1      0.00%      0.00% # number of callpals executed
system.cpu.kern.callpal::wrvptptr                   1      0.00%      0.00% # number of callpals executed
system.cpu.kern.callpal::swpctx                  4480      2.07%      2.07% # number of callpals executed
system.cpu.kern.callpal::tbi                       65      0.03%      2.10% # number of callpals executed
system.cpu.kern.callpal::wrent                      7      0.00%      2.10% # number of callpals executed
system.cpu.kern.callpal::swpipl                198963     91.81%     93.91% # number of callpals executed
system.cpu.kern.callpal::rdps                    6145      2.84%     96.75% # number of callpals executed
system.cpu.kern.callpal::wrkgp                      1      0.00%     96.75% # number of callpals executed
system.cpu.kern.callpal::wrusp                      8      0.00%     96.75% # number of callpals executed
system.cpu.kern.callpal::rdusp                     10      0.00%     96.76% # number of callpals executed
system.cpu.kern.callpal::whami                      2      0.00%     96.76% # number of callpals executed
system.cpu.kern.callpal::rti                     6231      2.88%     99.63% # number of callpals executed
system.cpu.kern.callpal::callsys                  559      0.26%     99.89% # number of callpals executed
system.cpu.kern.callpal::imb                      235      0.11%    100.00% # number of callpals executed
system.cpu.kern.callpal::total                 216710                       # number of callpals executed
system.cpu.kern.inst.hwrei                     239508                       # number of hwrei instructions executed
system.cpu.kern.mode_switch::kernel              6914                       # number of protection mode switches
system.cpu.kern.mode_switch::user                1967                       # number of protection mode switches
system.cpu.kern.mode_switch::idle                2303                       # number of protection mode switches
system.cpu.kern.mode_good::kernel                2027                      
system.cpu.kern.mode_good::user                  1967                      
system.cpu.kern.mode_good::idle                    60                      
system.cpu.kern.mode_switch_good::kernel     0.293173                       # fraction of useful protection mode switches
system.cpu.kern.mode_switch_good::user              1                       # fraction of useful protection mode switches
system.cpu.kern.mode_switch_good::idle       0.026053                       # fraction of useful protection mode switches
system.cpu.kern.mode_switch_good::total      0.362482                       # fraction of useful protection mode switches
system.cpu.kern.mode_ticks::kernel       352210685000     13.35%     13.35% # number of ticks spent at the given mode
system.cpu.kern.mode_ticks::user          10165943000      0.39%     13.73% # number of ticks spent at the given mode
system.cpu.kern.mode_ticks::idle         2276038356500     86.27%    100.00% # number of ticks spent at the given mode
system.cpu.kern.swap_context                     4481                       # number of times the context was actually changed
system.cpu.kern.ipl_count::0                    83065     39.95%     39.95% # number of times we switched to this ipl
system.cpu.kern.ipl_count::21                     117      0.06%     40.00% # number of times we switched to this ipl
system.cpu.kern.ipl_count::22                    2630      1.26%     41.27% # number of times we switched to this ipl
system.cpu.kern.ipl_count::31                  122130     58.73%    100.00% # number of times we switched to this ipl
system.cpu.kern.ipl_count::total               207942                       # number of times we switched to this ipl
system.cpu.kern.ipl_good::0                     81528     49.17%     49.17% # number of times we switched to this ipl from a different ipl
system.cpu.kern.ipl_good::21                      117      0.07%     49.24% # number of times we switched to this ipl from a different ipl
system.cpu.kern.ipl_good::22                     2630      1.59%     50.83% # number of times we switched to this ipl from a different ipl
system.cpu.kern.ipl_good::31                    81528     49.17%    100.00% # number of times we switched to this ipl from a different ipl
system.cpu.kern.ipl_good::total                165803                       # number of times we switched to this ipl from a different ipl
system.cpu.kern.ipl_ticks::0             2486768053500     94.25%     94.25% # number of cycles we spent at this ipl
system.cpu.kern.ipl_ticks::21               234476000      0.01%     94.26% # number of cycles we spent at this ipl
system.cpu.kern.ipl_ticks::22              1701902500      0.06%     94.33% # number of cycles we spent at this ipl
system.cpu.kern.ipl_ticks::31            149710554500      5.67%    100.00% # number of cycles we spent at this ipl
system.cpu.kern.ipl_ticks::total         2638414986500                       # number of cycles we spent at this ipl
system.cpu.kern.ipl_used::0                  0.981496                       # fraction of swpipl calls that actually changed the ipl
system.cpu.kern.ipl_used::21                        1                       # fraction of swpipl calls that actually changed the ipl
system.cpu.kern.ipl_used::22                        1                       # fraction of swpipl calls that actually changed the ipl
system.cpu.kern.ipl_used::31                 0.667551                       # fraction of swpipl calls that actually changed the ipl
system.cpu.kern.ipl_used::total              0.797352                       # fraction of swpipl calls that actually changed the ipl
system.cpu.committedInsts                    97471040                       # Number of instructions committed
system.cpu.committedOps                      97471040                       # Number of ops (including micro ops) committed
system.cpu.num_int_alu_accesses              94463194                       # Number of integer alu accesses
system.cpu.num_fp_alu_accesses                 424442                       # Number of float alu accesses
system.cpu.num_vec_alu_accesses                     0                       # Number of vector alu accesses
system.cpu.num_func_calls                     2921390                       # number of times a function call or return occured
system.cpu.num_conditional_control_insts     12574816                       # number of instructions that are conditional controls
system.cpu.num_int_insts                     94463194                       # number of integer instructions
system.cpu.num_fp_insts                        424442                       # number of float instructions
system.cpu.num_vec_insts                            0                       # number of vector instructions
system.cpu.num_int_register_reads           129804372                       # number of times the integer registers were read
system.cpu.num_int_register_writes           71788349                       # number of times the integer registers were written
system.cpu.num_fp_register_reads               176861                       # number of times the floating registers were read
system.cpu.num_fp_register_writes              179827                       # number of times the floating registers were written
system.cpu.num_vec_register_reads                   0                       # number of times the vector registers were read
system.cpu.num_vec_register_writes                  0                       # number of times the vector registers were written
system.cpu.num_mem_refs                      25966541                       # number of memory refs
system.cpu.num_load_insts                    17053849                       # Number of load instructions
system.cpu.num_store_insts                    8912692                       # Number of store instructions
system.cpu.num_idle_cycles               4392095325.998335                       # Number of idle cycles
system.cpu.num_busy_cycles               884739031.001665                       # Number of busy cycles
system.cpu.not_idle_fraction                 0.167665                       # Percentage of non-idle cycles
system.cpu.idle_fraction                     0.832335                       # Percentage of idle cycles
system.cpu.Branches                          16113208                       # Number of branches fetched
system.cpu.op_class::No_OpClass               1595311      1.64%      1.64% # Class of executed instruction
system.cpu.op_class::IntAlu                  67991314     69.75%     71.38% # Class of executed instruction
system.cpu.op_class::IntMult                   187088      0.19%     71.57% # Class of executed instruction
system.cpu.op_class::IntDiv                         0      0.00%     71.57% # Class of executed instruction
system.cpu.op_class::FloatAdd                  117366      0.12%     71.69% # Class of executed instruction
system.cpu.op_class::FloatCmp                       0      0.00%     71.69% # Class of executed instruction
system.cpu.op_class::FloatCvt                       0      0.00%     71.69% # Class of executed instruction
system.cpu.op_class::FloatMult                      0      0.00%     71.69% # Class of executed instruction
system.cpu.op_class::FloatMultAcc                   0      0.00%     71.69% # Class of executed instruction
system.cpu.op_class::FloatDiv                    4179      0.00%     71.70% # Class of executed instruction
system.cpu.op_class::FloatMisc                      0      0.00%     71.70% # Class of executed instruction
system.cpu.op_class::FloatSqrt                      0      0.00%     71.70% # Class of executed instruction
system.cpu.op_class::SimdAdd                        0      0.00%     71.70% # Class of executed instruction
system.cpu.op_class::SimdAddAcc                     0      0.00%     71.70% # Class of executed instruction
system.cpu.op_class::SimdAlu                        0      0.00%     71.70% # Class of executed instruction
system.cpu.op_class::SimdCmp                        0      0.00%     71.70% # Class of executed instruction
system.cpu.op_class::SimdCvt                        0      0.00%     71.70% # Class of executed instruction
system.cpu.op_class::SimdMisc                       0      0.00%     71.70% # Class of executed instruction
system.cpu.op_class::SimdMult                       0      0.00%     71.70% # Class of executed instruction
system.cpu.op_class::SimdMultAcc                    0      0.00%     71.70% # Class of executed instruction
system.cpu.op_class::SimdShift                      0      0.00%     71.70% # Class of executed instruction
system.cpu.op_class::SimdShiftAcc                   0      0.00%     71.70% # Class of executed instruction
system.cpu.op_class::SimdSqrt                       0      0.00%     71.70% # Class of executed instruction
system.cpu.op_class::SimdFloatAdd                   0      0.00%     71.70% # Class of executed instruction
system.cpu.op_class::SimdFloatAlu                   0      0.00%     71.70% # Class of executed instruction
system.cpu.op_class::SimdFloatCmp                   0      0.00%     71.70% # Class of executed instruction
system.cpu.op_class::SimdFloatCvt                   0      0.00%     71.70% # Class of executed instruction
system.cpu.op_class::SimdFloatDiv                   0      0.00%     71.70% # Class of executed instruction
system.cpu.op_class::SimdFloatMisc                  0      0.00%     71.70% # Class of executed instruction
system.cpu.op_class::SimdFloatMult                  0      0.00%     71.70% # Class of executed instruction
system.cpu.op_class::SimdFloatMultAcc               0      0.00%     71.70% # Class of executed instruction
system.cpu.op_class::SimdFloatSqrt                  0      0.00%     71.70% # Class of executed instruction
system.cpu.op_class::MemRead                 17356555     17.80%     89.50% # Class of executed instruction
system.cpu.op_class::MemWrite                 8839289      9.07%     98.57% # Class of executed instruction
system.cpu.op_class::FloatMemRead              155025      0.16%     98.73% # Class of executed instruction
system.cpu.op_class::FloatMemWrite             147872      0.15%     98.88% # Class of executed instruction
system.cpu.op_class::IprAccess                1091049      1.12%    100.00% # Class of executed instruction
system.cpu.op_class::InstPrefetch                   0      0.00%    100.00% # Class of executed instruction
system.cpu.op_class::total                   97485048                       # Class of executed instruction
system.cpu.dcache.tags.pwrStateResidencyTicks::UNDEFINED 2638417178500                       # Cumulative time (in ticks) in various power states
system.cpu.dcache.tags.replacements           2814943                       # number of replacements
system.cpu.dcache.tags.tagsinuse           127.996954                       # Cycle average of tags in use
system.cpu.dcache.tags.total_refs            23105758                       # Total number of references to valid blocks.
system.cpu.dcache.tags.sampled_refs           2814943                       # Sample count of references to valid blocks.
system.cpu.dcache.tags.avg_refs              8.208251                       # Average number of references to valid blocks.
system.cpu.dcache.tags.warmup_cycle          79751500                       # Cycle when the warmup percentage was hit.
system.cpu.dcache.tags.occ_blocks::cpu.data   127.996954                       # Average occupied blocks per requestor
system.cpu.dcache.tags.occ_percent::cpu.data     0.999976                       # Average percentage of cache occupancy
system.cpu.dcache.tags.occ_percent::total     0.999976                       # Average percentage of cache occupancy
system.cpu.dcache.tags.occ_task_id_blocks::1024          128                       # Occupied blocks per task id
system.cpu.dcache.tags.age_task_id_blocks_1024::0           31                       # Occupied blocks per task id
system.cpu.dcache.tags.age_task_id_blocks_1024::1           84                       # Occupied blocks per task id
system.cpu.dcache.tags.age_task_id_blocks_1024::2           13                       # Occupied blocks per task id
system.cpu.dcache.tags.occ_task_id_percent::1024            1                       # Percentage of cache occupancy per task id
system.cpu.dcache.tags.tag_accesses         832540447                       # Number of tag accesses
system.cpu.dcache.tags.data_accesses        832540447                       # Number of data accesses
system.cpu.dcache.pwrStateResidencyTicks::UNDEFINED 2638417178500                       # Cumulative time (in ticks) in various power states
system.cpu.dcache.ReadReq_hits::cpu.data     14211827                       # number of ReadReq hits
system.cpu.dcache.ReadReq_hits::total        14211827                       # number of ReadReq hits
system.cpu.dcache.WriteReq_hits::cpu.data      8306780                       # number of WriteReq hits
system.cpu.dcache.WriteReq_hits::total        8306780                       # number of WriteReq hits
system.cpu.dcache.LoadLockedReq_hits::cpu.data       279266                       # number of LoadLockedReq hits
system.cpu.dcache.LoadLockedReq_hits::total       279266                       # number of LoadLockedReq hits
system.cpu.dcache.StoreCondReq_hits::cpu.data       315965                       # number of StoreCondReq hits
system.cpu.dcache.StoreCondReq_hits::total       315965                       # number of StoreCondReq hits
system.cpu.dcache.demand_hits::cpu.data      22518607                       # number of demand (read+write) hits
system.cpu.dcache.demand_hits::total         22518607                       # number of demand (read+write) hits
system.cpu.dcache.overall_hits::cpu.data     22518607                       # number of overall hits
system.cpu.dcache.overall_hits::total        22518607                       # number of overall hits
system.cpu.dcache.ReadReq_misses::cpu.data      2505495                       # number of ReadReq misses
system.cpu.dcache.ReadReq_misses::total       2505495                       # number of ReadReq misses
system.cpu.dcache.WriteReq_misses::cpu.data       271829                       # number of WriteReq misses
system.cpu.dcache.WriteReq_misses::total       271829                       # number of WriteReq misses
system.cpu.dcache.LoadLockedReq_misses::cpu.data        37756                       # number of LoadLockedReq misses
system.cpu.dcache.LoadLockedReq_misses::total        37756                       # number of LoadLockedReq misses
system.cpu.dcache.demand_misses::cpu.data      2777324                       # number of demand (read+write) misses
system.cpu.dcache.demand_misses::total        2777324                       # number of demand (read+write) misses
system.cpu.dcache.overall_misses::cpu.data      2777324                       # number of overall misses
system.cpu.dcache.overall_misses::total       2777324                       # number of overall misses
system.cpu.dcache.ReadReq_miss_latency::cpu.data 202989117500                       # number of ReadReq miss cycles
system.cpu.dcache.ReadReq_miss_latency::total 202989117500                       # number of ReadReq miss cycles
system.cpu.dcache.WriteReq_miss_latency::cpu.data  22561320500                       # number of WriteReq miss cycles
system.cpu.dcache.WriteReq_miss_latency::total  22561320500                       # number of WriteReq miss cycles
system.cpu.dcache.LoadLockedReq_miss_latency::cpu.data   2507025000                       # number of LoadLockedReq miss cycles
system.cpu.dcache.LoadLockedReq_miss_latency::total   2507025000                       # number of LoadLockedReq miss cycles
system.cpu.dcache.demand_miss_latency::cpu.data 225550438000                       # number of demand (read+write) miss cycles
system.cpu.dcache.demand_miss_latency::total 225550438000                       # number of demand (read+write) miss cycles
system.cpu.dcache.overall_miss_latency::cpu.data 225550438000                       # number of overall miss cycles
system.cpu.dcache.overall_miss_latency::total 225550438000                       # number of overall miss cycles
system.cpu.dcache.ReadReq_accesses::cpu.data     16717322                       # number of ReadReq accesses(hits+misses)
system.cpu.dcache.ReadReq_accesses::total     16717322                       # number of ReadReq accesses(hits+misses)
system.cpu.dcache.WriteReq_accesses::cpu.data      8578609                       # number of WriteReq accesses(hits+misses)
system.cpu.dcache.WriteReq_accesses::total      8578609                       # number of WriteReq accesses(hits+misses)
system.cpu.dcache.LoadLockedReq_accesses::cpu.data       317022                       # number of LoadLockedReq accesses(hits+misses)
system.cpu.dcache.LoadLockedReq_accesses::total       317022                       # number of LoadLockedReq accesses(hits+misses)
system.cpu.dcache.StoreCondReq_accesses::cpu.data       315965                       # number of StoreCondReq accesses(hits+misses)
system.cpu.dcache.StoreCondReq_accesses::total       315965                       # number of StoreCondReq accesses(hits+misses)
system.cpu.dcache.demand_accesses::cpu.data     25295931                       # number of demand (read+write) accesses
system.cpu.dcache.demand_accesses::total     25295931                       # number of demand (read+write) accesses
system.cpu.dcache.overall_accesses::cpu.data     25295931                       # number of overall (read+write) accesses
system.cpu.dcache.overall_accesses::total     25295931                       # number of overall (read+write) accesses
system.cpu.dcache.ReadReq_miss_rate::cpu.data     0.149874                       # miss rate for ReadReq accesses
system.cpu.dcache.ReadReq_miss_rate::total     0.149874                       # miss rate for ReadReq accesses
system.cpu.dcache.WriteReq_miss_rate::cpu.data     0.031687                       # miss rate for WriteReq accesses
system.cpu.dcache.WriteReq_miss_rate::total     0.031687                       # miss rate for WriteReq accesses
system.cpu.dcache.LoadLockedReq_miss_rate::cpu.data     0.119096                       # miss rate for LoadLockedReq accesses
system.cpu.dcache.LoadLockedReq_miss_rate::total     0.119096                       # miss rate for LoadLockedReq accesses
system.cpu.dcache.demand_miss_rate::cpu.data     0.109793                       # miss rate for demand accesses
system.cpu.dcache.demand_miss_rate::total     0.109793                       # miss rate for demand accesses
system.cpu.dcache.overall_miss_rate::cpu.data     0.109793                       # miss rate for overall accesses
system.cpu.dcache.overall_miss_rate::total     0.109793                       # miss rate for overall accesses
system.cpu.dcache.ReadReq_avg_miss_latency::cpu.data 81017.570380                       # average ReadReq miss latency
system.cpu.dcache.ReadReq_avg_miss_latency::total 81017.570380                       # average ReadReq miss latency
system.cpu.dcache.WriteReq_avg_miss_latency::cpu.data 82998.210272                       # average WriteReq miss latency
system.cpu.dcache.WriteReq_avg_miss_latency::total 82998.210272                       # average WriteReq miss latency
system.cpu.dcache.LoadLockedReq_avg_miss_latency::cpu.data 66400.704524                       # average LoadLockedReq miss latency
system.cpu.dcache.LoadLockedReq_avg_miss_latency::total 66400.704524                       # average LoadLockedReq miss latency
system.cpu.dcache.demand_avg_miss_latency::cpu.data 81211.424378                       # average overall miss latency
system.cpu.dcache.demand_avg_miss_latency::total 81211.424378                       # average overall miss latency
system.cpu.dcache.overall_avg_miss_latency::cpu.data 81211.424378                       # average overall miss latency
system.cpu.dcache.overall_avg_miss_latency::total 81211.424378                       # average overall miss latency
system.cpu.dcache.blocked_cycles::no_mshrs            0                       # number of cycles access was blocked
system.cpu.dcache.blocked_cycles::no_targets            0                       # number of cycles access was blocked
system.cpu.dcache.blocked::no_mshrs                 0                       # number of cycles access was blocked
system.cpu.dcache.blocked::no_targets               0                       # number of cycles access was blocked
system.cpu.dcache.avg_blocked_cycles::no_mshrs          nan                       # average number of cycles each access was blocked
system.cpu.dcache.avg_blocked_cycles::no_targets          nan                       # average number of cycles each access was blocked
system.cpu.dcache.writebacks::writebacks       544852                       # number of writebacks
system.cpu.dcache.writebacks::total            544852                       # number of writebacks
system.cpu.dcache.ReadReq_mshr_misses::cpu.data      2505495                       # number of ReadReq MSHR misses
system.cpu.dcache.ReadReq_mshr_misses::total      2505495                       # number of ReadReq MSHR misses
system.cpu.dcache.WriteReq_mshr_misses::cpu.data       271829                       # number of WriteReq MSHR misses
system.cpu.dcache.WriteReq_mshr_misses::total       271829                       # number of WriteReq MSHR misses
system.cpu.dcache.LoadLockedReq_mshr_misses::cpu.data        37756                       # number of LoadLockedReq MSHR misses
system.cpu.dcache.LoadLockedReq_mshr_misses::total        37756                       # number of LoadLockedReq MSHR misses
system.cpu.dcache.demand_mshr_misses::cpu.data      2777324                       # number of demand (read+write) MSHR misses
system.cpu.dcache.demand_mshr_misses::total      2777324                       # number of demand (read+write) MSHR misses
system.cpu.dcache.overall_mshr_misses::cpu.data      2777324                       # number of overall MSHR misses
system.cpu.dcache.overall_mshr_misses::total      2777324                       # number of overall MSHR misses
system.cpu.dcache.ReadReq_mshr_uncacheable::cpu.data         6973                       # number of ReadReq MSHR uncacheable
system.cpu.dcache.ReadReq_mshr_uncacheable::total         6973                       # number of ReadReq MSHR uncacheable
system.cpu.dcache.WriteReq_mshr_uncacheable::cpu.data        10408                       # number of WriteReq MSHR uncacheable
system.cpu.dcache.WriteReq_mshr_uncacheable::total        10408                       # number of WriteReq MSHR uncacheable
system.cpu.dcache.overall_mshr_uncacheable_misses::cpu.data        17381                       # number of overall MSHR uncacheable misses
system.cpu.dcache.overall_mshr_uncacheable_misses::total        17381                       # number of overall MSHR uncacheable misses
system.cpu.dcache.ReadReq_mshr_miss_latency::cpu.data 200483622500                       # number of ReadReq MSHR miss cycles
system.cpu.dcache.ReadReq_mshr_miss_latency::total 200483622500                       # number of ReadReq MSHR miss cycles
system.cpu.dcache.WriteReq_mshr_miss_latency::cpu.data  22289491500                       # number of WriteReq MSHR miss cycles
system.cpu.dcache.WriteReq_mshr_miss_latency::total  22289491500                       # number of WriteReq MSHR miss cycles
system.cpu.dcache.LoadLockedReq_mshr_miss_latency::cpu.data   2469269000                       # number of LoadLockedReq MSHR miss cycles
system.cpu.dcache.LoadLockedReq_mshr_miss_latency::total   2469269000                       # number of LoadLockedReq MSHR miss cycles
system.cpu.dcache.demand_mshr_miss_latency::cpu.data 222773114000                       # number of demand (read+write) MSHR miss cycles
system.cpu.dcache.demand_mshr_miss_latency::total 222773114000                       # number of demand (read+write) MSHR miss cycles
system.cpu.dcache.overall_mshr_miss_latency::cpu.data 222773114000                       # number of overall MSHR miss cycles
system.cpu.dcache.overall_mshr_miss_latency::total 222773114000                       # number of overall MSHR miss cycles
system.cpu.dcache.ReadReq_mshr_uncacheable_latency::cpu.data   1561245500                       # number of ReadReq MSHR uncacheable cycles
system.cpu.dcache.ReadReq_mshr_uncacheable_latency::total   1561245500                       # number of ReadReq MSHR uncacheable cycles
system.cpu.dcache.overall_mshr_uncacheable_latency::cpu.data   1561245500                       # number of overall MSHR uncacheable cycles
system.cpu.dcache.overall_mshr_uncacheable_latency::total   1561245500                       # number of overall MSHR uncacheable cycles
system.cpu.dcache.ReadReq_mshr_miss_rate::cpu.data     0.149874                       # mshr miss rate for ReadReq accesses
system.cpu.dcache.ReadReq_mshr_miss_rate::total     0.149874                       # mshr miss rate for ReadReq accesses
system.cpu.dcache.WriteReq_mshr_miss_rate::cpu.data     0.031687                       # mshr miss rate for WriteReq accesses
system.cpu.dcache.WriteReq_mshr_miss_rate::total     0.031687                       # mshr miss rate for WriteReq accesses
system.cpu.dcache.LoadLockedReq_mshr_miss_rate::cpu.data     0.119096                       # mshr miss rate for LoadLockedReq accesses
system.cpu.dcache.LoadLockedReq_mshr_miss_rate::total     0.119096                       # mshr miss rate for LoadLockedReq accesses
system.cpu.dcache.demand_mshr_miss_rate::cpu.data     0.109793                       # mshr miss rate for demand accesses
system.cpu.dcache.demand_mshr_miss_rate::total     0.109793                       # mshr miss rate for demand accesses
system.cpu.dcache.overall_mshr_miss_rate::cpu.data     0.109793                       # mshr miss rate for overall accesses
system.cpu.dcache.overall_mshr_miss_rate::total     0.109793                       # mshr miss rate for overall accesses
system.cpu.dcache.ReadReq_avg_mshr_miss_latency::cpu.data 80017.570380                       # average ReadReq mshr miss latency
system.cpu.dcache.ReadReq_avg_mshr_miss_latency::total 80017.570380                       # average ReadReq mshr miss latency
system.cpu.dcache.WriteReq_avg_mshr_miss_latency::cpu.data 81998.210272                       # average WriteReq mshr miss latency
system.cpu.dcache.WriteReq_avg_mshr_miss_latency::total 81998.210272                       # average WriteReq mshr miss latency
system.cpu.dcache.LoadLockedReq_avg_mshr_miss_latency::cpu.data 65400.704524                       # average LoadLockedReq mshr miss latency
system.cpu.dcache.LoadLockedReq_avg_mshr_miss_latency::total 65400.704524                       # average LoadLockedReq mshr miss latency
system.cpu.dcache.demand_avg_mshr_miss_latency::cpu.data 80211.424378                       # average overall mshr miss latency
system.cpu.dcache.demand_avg_mshr_miss_latency::total 80211.424378                       # average overall mshr miss latency
system.cpu.dcache.overall_avg_mshr_miss_latency::cpu.data 80211.424378                       # average overall mshr miss latency
system.cpu.dcache.overall_avg_mshr_miss_latency::total 80211.424378                       # average overall mshr miss latency
system.cpu.dcache.ReadReq_avg_mshr_uncacheable_latency::cpu.data 223898.680625                       # average ReadReq mshr uncacheable latency
system.cpu.dcache.ReadReq_avg_mshr_uncacheable_latency::total 223898.680625                       # average ReadReq mshr uncacheable latency
system.cpu.dcache.overall_avg_mshr_uncacheable_latency::cpu.data 89824.837466                       # average overall mshr uncacheable latency
system.cpu.dcache.overall_avg_mshr_uncacheable_latency::total 89824.837466                       # average overall mshr uncacheable latency
system.cpu.icache.tags.pwrStateResidencyTicks::UNDEFINED 2638417178500                       # Cumulative time (in ticks) in various power states
system.cpu.icache.tags.replacements           1648418                       # number of replacements
system.cpu.icache.tags.tagsinuse            63.996186                       # Cycle average of tags in use
system.cpu.icache.tags.total_refs            95833784                       # Total number of references to valid blocks.
system.cpu.icache.tags.sampled_refs           1648418                       # Sample count of references to valid blocks.
system.cpu.icache.tags.avg_refs             58.136822                       # Average number of references to valid blocks.
system.cpu.icache.tags.warmup_cycle         883793500                       # Cycle when the warmup percentage was hit.
system.cpu.icache.tags.occ_blocks::cpu.inst    63.996186                       # Average occupied blocks per requestor
system.cpu.icache.tags.occ_percent::cpu.inst     0.999940                       # Average percentage of cache occupancy
system.cpu.icache.tags.occ_percent::total     0.999940                       # Average percentage of cache occupancy
system.cpu.icache.tags.occ_task_id_blocks::1024           64                       # Occupied blocks per task id
system.cpu.icache.tags.age_task_id_blocks_1024::0           47                       # Occupied blocks per task id
system.cpu.icache.tags.age_task_id_blocks_1024::1           16                       # Occupied blocks per task id
system.cpu.icache.tags.age_task_id_blocks_1024::2            1                       # Occupied blocks per task id
system.cpu.icache.tags.occ_task_id_percent::1024            1                       # Percentage of cache occupancy per task id
system.cpu.icache.tags.tag_accesses         196618743                       # Number of tag accesses
system.cpu.icache.tags.data_accesses        196618743                       # Number of data accesses
system.cpu.icache.pwrStateResidencyTicks::UNDEFINED 2638417178500                       # Cumulative time (in ticks) in various power states
system.cpu.icache.ReadReq_hits::cpu.inst     95836404                       # number of ReadReq hits
system.cpu.icache.ReadReq_hits::total        95836404                       # number of ReadReq hits
system.cpu.icache.demand_hits::cpu.inst      95836404                       # number of demand (read+write) hits
system.cpu.icache.demand_hits::total         95836404                       # number of demand (read+write) hits
system.cpu.icache.overall_hits::cpu.inst     95836404                       # number of overall hits
system.cpu.icache.overall_hits::total        95836404                       # number of overall hits
system.cpu.icache.ReadReq_misses::cpu.inst      1648645                       # number of ReadReq misses
system.cpu.icache.ReadReq_misses::total       1648645                       # number of ReadReq misses
system.cpu.icache.demand_misses::cpu.inst      1648645                       # number of demand (read+write) misses
system.cpu.icache.demand_misses::total        1648645                       # number of demand (read+write) misses
system.cpu.icache.overall_misses::cpu.inst      1648645                       # number of overall misses
system.cpu.icache.overall_misses::total       1648645                       # number of overall misses
system.cpu.icache.ReadReq_miss_latency::cpu.inst  89321448500                       # number of ReadReq miss cycles
system.cpu.icache.ReadReq_miss_latency::total  89321448500                       # number of ReadReq miss cycles
system.cpu.icache.demand_miss_latency::cpu.inst  89321448500                       # number of demand (read+write) miss cycles
system.cpu.icache.demand_miss_latency::total  89321448500                       # number of demand (read+write) miss cycles
system.cpu.icache.overall_miss_latency::cpu.inst  89321448500                       # number of overall miss cycles
system.cpu.icache.overall_miss_latency::total  89321448500                       # number of overall miss cycles
system.cpu.icache.ReadReq_accesses::cpu.inst     97485049                       # number of ReadReq accesses(hits+misses)
system.cpu.icache.ReadReq_accesses::total     97485049                       # number of ReadReq accesses(hits+misses)
system.cpu.icache.demand_accesses::cpu.inst     97485049                       # number of demand (read+write) accesses
system.cpu.icache.demand_accesses::total     97485049                       # number of demand (read+write) accesses
system.cpu.icache.overall_accesses::cpu.inst     97485049                       # number of overall (read+write) accesses
system.cpu.icache.overall_accesses::total     97485049                       # number of overall (read+write) accesses
system.cpu.icache.ReadReq_miss_rate::cpu.inst     0.016912                       # miss rate for ReadReq accesses
system.cpu.icache.ReadReq_miss_rate::total     0.016912                       # miss rate for ReadReq accesses
system.cpu.icache.demand_miss_rate::cpu.inst     0.016912                       # miss rate for demand accesses
system.cpu.icache.demand_miss_rate::total     0.016912                       # miss rate for demand accesses
system.cpu.icache.overall_miss_rate::cpu.inst     0.016912                       # miss rate for overall accesses
system.cpu.icache.overall_miss_rate::total     0.016912                       # miss rate for overall accesses
system.cpu.icache.ReadReq_avg_miss_latency::cpu.inst 54178.703420                       # average ReadReq miss latency
system.cpu.icache.ReadReq_avg_miss_latency::total 54178.703420                       # average ReadReq miss latency
system.cpu.icache.demand_avg_miss_latency::cpu.inst 54178.703420                       # average overall miss latency
system.cpu.icache.demand_avg_miss_latency::total 54178.703420                       # average overall miss latency
system.cpu.icache.overall_avg_miss_latency::cpu.inst 54178.703420                       # average overall miss latency
system.cpu.icache.overall_avg_miss_latency::total 54178.703420                       # average overall miss latency
system.cpu.icache.blocked_cycles::no_mshrs            0                       # number of cycles access was blocked
system.cpu.icache.blocked_cycles::no_targets            0                       # number of cycles access was blocked
system.cpu.icache.blocked::no_mshrs                 0                       # number of cycles access was blocked
system.cpu.icache.blocked::no_targets               0                       # number of cycles access was blocked
system.cpu.icache.avg_blocked_cycles::no_mshrs          nan                       # average number of cycles each access was blocked
system.cpu.icache.avg_blocked_cycles::no_targets          nan                       # average number of cycles each access was blocked
system.cpu.icache.writebacks::writebacks      1648418                       # number of writebacks
system.cpu.icache.writebacks::total           1648418                       # number of writebacks
system.cpu.icache.ReadReq_mshr_misses::cpu.inst      1648645                       # number of ReadReq MSHR misses
system.cpu.icache.ReadReq_mshr_misses::total      1648645                       # number of ReadReq MSHR misses
system.cpu.icache.demand_mshr_misses::cpu.inst      1648645                       # number of demand (read+write) MSHR misses
system.cpu.icache.demand_mshr_misses::total      1648645                       # number of demand (read+write) MSHR misses
system.cpu.icache.overall_mshr_misses::cpu.inst      1648645                       # number of overall MSHR misses
system.cpu.icache.overall_mshr_misses::total      1648645                       # number of overall MSHR misses
system.cpu.icache.ReadReq_mshr_miss_latency::cpu.inst  87672803500                       # number of ReadReq MSHR miss cycles
system.cpu.icache.ReadReq_mshr_miss_latency::total  87672803500                       # number of ReadReq MSHR miss cycles
system.cpu.icache.demand_mshr_miss_latency::cpu.inst  87672803500                       # number of demand (read+write) MSHR miss cycles
system.cpu.icache.demand_mshr_miss_latency::total  87672803500                       # number of demand (read+write) MSHR miss cycles
system.cpu.icache.overall_mshr_miss_latency::cpu.inst  87672803500                       # number of overall MSHR miss cycles
system.cpu.icache.overall_mshr_miss_latency::total  87672803500                       # number of overall MSHR miss cycles
system.cpu.icache.ReadReq_mshr_miss_rate::cpu.inst     0.016912                       # mshr miss rate for ReadReq accesses
system.cpu.icache.ReadReq_mshr_miss_rate::total     0.016912                       # mshr miss rate for ReadReq accesses
system.cpu.icache.demand_mshr_miss_rate::cpu.inst     0.016912                       # mshr miss rate for demand accesses
system.cpu.icache.demand_mshr_miss_rate::total     0.016912                       # mshr miss rate for demand accesses
system.cpu.icache.overall_mshr_miss_rate::cpu.inst     0.016912                       # mshr miss rate for overall accesses
[...]
system.l2.ReadReq_avg_mshr_uncacheable_latency::total 211524.590164                       # average ReadReq mshr uncacheable latency
system.l2.overall_avg_mshr_uncacheable_latency::cpu.data 120139.664804                       # average overall mshr uncacheable latency
system.l2.overall_avg_mshr_uncacheable_latency::total 120139.664804                       # average overall mshr uncacheable latency
system.membus.snoop_filter.tot_requests         93197                       # Total number of requests made to the snoop filter.
system.membus.snoop_filter.hit_single_requests        47385                       # Number of requests hitting in the snoop filter with a single holder of the requested data.
system.membus.snoop_filter.hit_multi_requests           27                       # Number of requests hitting in the snoop filter with multiple (>1) holders of the requested data.
system.membus.snoop_filter.tot_snoops               0                       # Total number of snoops made to the snoop filter.
system.membus.snoop_filter.hit_single_snoops            0                       # Number of snoops hitting in the snoop filter with a single holder of the requested data.
system.membus.snoop_filter.hit_multi_snoops            0                       # Number of snoops hitting in the snoop filter with multiple (>1) holders of the requested data.
system.membus.pwrStateResidencyTicks::UNDEFINED   6963063000                       # Cumulative time (in ticks) in various power states
system.membus.trans_dist::ReadReq                 610                       # Transaction distribution
system.membus.trans_dist::ReadResp              33279                       # Transaction distribution
system.membus.trans_dist::WriteReq                464                       # Transaction distribution
system.membus.trans_dist::WriteResp               464                       # Transaction distribution
system.membus.trans_dist::WritebackDirty        16231                       # Transaction distribution
system.membus.trans_dist::CleanEvict            29579                       # Transaction distribution
system.membus.trans_dist::ReadExReq              7480                       # Transaction distribution
system.membus.trans_dist::ReadExResp             7480                       # Transaction distribution
system.membus.trans_dist::ReadSharedReq         32669                       # Transaction distribution
system.membus.trans_dist::InvalidateReq          5664                       # Transaction distribution
system.membus.pkt_count_system.iocache.mem_side::system.mem_ctrls.port        11382                       # Packet count per connected master and slave (bytes)
system.membus.pkt_count_system.iocache.mem_side::total        11382                       # Packet count per connected master and slave (bytes)
system.membus.pkt_count_system.l2.mem_side::system.bridge.slave         2148                       # Packet count per connected master and slave (bytes)
system.membus.pkt_count_system.l2.mem_side::system.mem_ctrls.port       120363                       # Packet count per connected master and slave (bytes)
system.membus.pkt_count_system.l2.mem_side::total       122511                       # Packet count per connected master and slave (bytes)
system.membus.pkt_count::total                 133893                       # Packet count per connected master and slave (bytes)
system.membus.pkt_size_system.iocache.mem_side::system.mem_ctrls.port       724992                       # Cumulative packet size per connected master and slave (bytes)
system.membus.pkt_size_system.iocache.mem_side::total       724992                       # Cumulative packet size per connected master and slave (bytes)
system.membus.pkt_size_system.l2.mem_side::system.bridge.slave         1735                       # Cumulative packet size per connected master and slave (bytes)
system.membus.pkt_size_system.l2.mem_side::system.mem_ctrls.port      6488192                       # Cumulative packet size per connected master and slave (bytes)
system.membus.pkt_size_system.l2.mem_side::total      6489927                       # Cumulative packet size per connected master and slave (bytes)
system.membus.pkt_size::total                 7214919                       # Cumulative packet size per connected master and slave (bytes)
system.membus.snoops                               27                       # Total snoops (count)
system.membus.snoopTraffic                       3456                       # Total snoop traffic (bytes)
system.membus.snoop_fanout::samples             46887                       # Request fanout histogram
system.membus.snoop_fanout::mean             0.000576                       # Request fanout histogram
system.membus.snoop_fanout::stdev            0.023990                       # Request fanout histogram
system.membus.snoop_fanout::underflows              0      0.00%      0.00% # Request fanout histogram
system.membus.snoop_fanout::0                   46860     99.94%     99.94% # Request fanout histogram
system.membus.snoop_fanout::1                      27      0.06%    100.00% # Request fanout histogram
system.membus.snoop_fanout::2                       0      0.00%    100.00% # Request fanout histogram
system.membus.snoop_fanout::overflows               0      0.00%    100.00% # Request fanout histogram
system.membus.snoop_fanout::min_value               0                       # Request fanout histogram
system.membus.snoop_fanout::max_value               1                       # Request fanout histogram
system.membus.snoop_fanout::total               46887                       # Request fanout histogram
system.membus.reqLayer0.occupancy             1782000                       # Layer occupancy (ticks)
system.membus.reqLayer0.utilization               0.0                       # Layer utilization (%)
system.membus.reqLayer1.occupancy           224983681                       # Layer occupancy (ticks)
system.membus.reqLayer1.utilization               3.2                       # Layer utilization (%)
system.membus.respLayer1.occupancy             256265                       # Layer occupancy (ticks)
system.membus.respLayer1.utilization              0.0                       # Layer utilization (%)
system.membus.respLayer2.occupancy          379058750                       # Layer occupancy (ticks)
system.membus.respLayer2.utilization              5.4                       # Layer utilization (%)
system.membus.badaddr_responder.pwrStateResidencyTicks::UNDEFINED   6963063000                       # Cumulative time (in ticks) in various power states
system.tol2bus.snoop_filter.tot_requests       143246                       # Total number of requests made to the snoop filter.
system.tol2bus.snoop_filter.hit_single_requests        71628                       # Number of requests hitting in the snoop filter with a single holder of the requested data.
system.tol2bus.snoop_filter.hit_multi_requests          292                       # Number of requests hitting in the snoop filter with multiple (>1) holders of the requested data.
system.tol2bus.snoop_filter.tot_snoops           4295                       # Total number of snoops made to the snoop filter.
system.tol2bus.snoop_filter.hit_single_snoops         4279                       # Number of snoops hitting in the snoop filter with a single holder of the requested data.
system.tol2bus.snoop_filter.hit_multi_snoops           16                       # Number of snoops hitting in the snoop filter with multiple (>1) holders of the requested data.
system.tol2bus.pwrStateResidencyTicks::UNDEFINED   6963063000                       # Cumulative time (in ticks) in various power states
system.tol2bus.trans_dist::ReadReq                610                       # Transaction distribution
system.tol2bus.trans_dist::ReadResp             63906                       # Transaction distribution
system.tol2bus.trans_dist::WriteReq               464                       # Transaction distribution
system.tol2bus.trans_dist::WriteResp              464                       # Transaction distribution
system.tol2bus.trans_dist::WritebackDirty        24965                       # Transaction distribution
system.tol2bus.trans_dist::WritebackClean        41028                       # Transaction distribution
system.tol2bus.trans_dist::CleanEvict           48197                       # Transaction distribution
system.tol2bus.trans_dist::UpgradeReq               1                       # Transaction distribution
system.tol2bus.trans_dist::UpgradeResp              1                       # Transaction distribution
system.tol2bus.trans_dist::ReadExReq             8355                       # Transaction distribution
system.tol2bus.trans_dist::ReadExResp            8355                       # Transaction distribution
system.tol2bus.trans_dist::ReadCleanReq         41031                       # Transaction distribution
system.tol2bus.trans_dist::ReadSharedReq        22265                       # Transaction distribution
system.tol2bus.pkt_count_system.cpu.icache.mem_side::system.l2.cpu_side       123090                       # Packet count per connected master and slave (bytes)
system.tol2bus.pkt_count_system.cpu.dcache.mem_side::system.l2.cpu_side        93956                       # Packet count per connected master and slave (bytes)
system.tol2bus.pkt_count::total                217046                       # Packet count per connected master and slave (bytes)
system.tol2bus.pkt_size_system.cpu.icache.mem_side::system.l2.cpu_side     10503552                       # Cumulative packet size per connected master and slave (bytes)
system.tol2bus.pkt_size_system.cpu.dcache.mem_side::system.l2.cpu_side      5764039                       # Cumulative packet size per connected master and slave (bytes)
system.tol2bus.pkt_size::total               16267591                       # Cumulative packet size per connected master and slave (bytes)
system.tol2bus.snoops                           42623                       # Total snoops (count)
system.tol2bus.snoopTraffic                   1356032                       # Total snoop traffic (bytes)
system.tol2bus.snoop_fanout::samples           115295                       # Request fanout histogram
system.tol2bus.snoop_fanout::mean            0.039932                       # Request fanout histogram
system.tol2bus.snoop_fanout::stdev           0.196509                       # Request fanout histogram
system.tol2bus.snoop_fanout::underflows             0      0.00%      0.00% # Request fanout histogram
system.tol2bus.snoop_fanout::0                 110707     96.02%     96.02% # Request fanout histogram
system.tol2bus.snoop_fanout::1                   4572      3.97%     99.99% # Request fanout histogram
system.tol2bus.snoop_fanout::2                     16      0.01%    100.00% # Request fanout histogram
system.tol2bus.snoop_fanout::overflows              0      0.00%    100.00% # Request fanout histogram
system.tol2bus.snoop_fanout::min_value              0                       # Request fanout histogram
system.tol2bus.snoop_fanout::max_value              2                       # Request fanout histogram
system.tol2bus.snoop_fanout::total             115295                       # Request fanout histogram
system.tol2bus.reqLayer0.occupancy          183244000                       # Layer occupancy (ticks)
system.tol2bus.reqLayer0.utilization              2.6                       # Layer utilization (%)
system.tol2bus.snoopLayer0.occupancy            75235                       # Layer occupancy (ticks)
system.tol2bus.snoopLayer0.utilization            0.0                       # Layer utilization (%)
system.tol2bus.respLayer0.occupancy         102577500                       # Layer occupancy (ticks)
system.tol2bus.respLayer0.utilization             1.5                       # Layer utilization (%)
system.tol2bus.respLayer1.occupancy          77325000                       # Layer occupancy (ticks)
system.tol2bus.respLayer1.utilization             1.1                       # Layer utilization (%)
system.tsunami.backdoor.pwrStateResidencyTicks::UNDEFINED   6963063000                       # Cumulative time (in ticks) in various power states
system.tsunami.cchip.pwrStateResidencyTicks::UNDEFINED   6963063000                       # Cumulative time (in ticks) in various power states
system.tsunami.pchip.pwrStateResidencyTicks::UNDEFINED   6963063000                       # Cumulative time (in ticks) in various power states
system.tsunami.ethernet.pwrStateResidencyTicks::UNDEFINED   6963063000                       # Cumulative time (in ticks) in various power states
system.tsunami.ethernet.descDMAReads                0                       # Number of descriptors the device read w/ DMA
system.tsunami.ethernet.descDMAWrites               0                       # Number of descriptors the device wrote w/ DMA
system.tsunami.ethernet.descDmaReadBytes            0                       # number of descriptor bytes read w/ DMA
system.tsunami.ethernet.descDmaWriteBytes            0                       # number of descriptor bytes write w/ DMA
system.tsunami.ethernet.postedSwi                   0                       # number of software interrupts posted to CPU
system.tsunami.ethernet.coalescedSwi              nan                       # average number of Swi's coalesced into each post
system.tsunami.ethernet.totalSwi                    0                       # total number of Swi written to ISR
system.tsunami.ethernet.postedRxIdle                0                       # number of rxIdle interrupts posted to CPU
system.tsunami.ethernet.coalescedRxIdle           nan                       # average number of RxIdle's coalesced into each post
system.tsunami.ethernet.totalRxIdle                 0                       # total number of RxIdle written to ISR
system.tsunami.ethernet.postedRxOk                  0                       # number of RxOk interrupts posted to CPU
system.tsunami.ethernet.coalescedRxOk             nan                       # average number of RxOk's coalesced into each post
system.tsunami.ethernet.totalRxOk                   0                       # total number of RxOk written to ISR
system.tsunami.ethernet.postedRxDesc                0                       # number of RxDesc interrupts posted to CPU
system.tsunami.ethernet.coalescedRxDesc           nan                       # average number of RxDesc's coalesced into each post
system.tsunami.ethernet.totalRxDesc                 0                       # total number of RxDesc written to ISR
system.tsunami.ethernet.postedTxOk                  0                       # number of TxOk interrupts posted to CPU
system.tsunami.ethernet.coalescedTxOk             nan                       # average number of TxOk's coalesced into each post
system.tsunami.ethernet.totalTxOk                   0                       # total number of TxOk written to ISR
system.tsunami.ethernet.postedTxIdle                0                       # number of TxIdle interrupts posted to CPU
system.tsunami.ethernet.coalescedTxIdle           nan                       # average number of TxIdle's coalesced into each post
system.tsunami.ethernet.totalTxIdle                 0                       # total number of TxIdle written to ISR
system.tsunami.ethernet.postedTxDesc                0                       # number of TxDesc interrupts posted to CPU
system.tsunami.ethernet.coalescedTxDesc           nan                       # average number of TxDesc's coalesced into each post
system.tsunami.ethernet.totalTxDesc                 0                       # total number of TxDesc written to ISR
system.tsunami.ethernet.postedRxOrn                 0                       # number of RxOrn posted to CPU
system.tsunami.ethernet.coalescedRxOrn            nan                       # average number of RxOrn's coalesced into each post
system.tsunami.ethernet.totalRxOrn                  0                       # total number of RxOrn written to ISR
system.tsunami.ethernet.coalescedTotal            nan                       # average number of interrupts coalesced into each post
system.tsunami.ethernet.postedInterrupts            0                       # number of posts to CPU
system.tsunami.ethernet.droppedPackets              0                       # number of packets dropped
system.tsunami.fake_OROM.pwrStateResidencyTicks::UNDEFINED   6963063000                       # Cumulative time (in ticks) in various power states
system.tsunami.fake_ata0.pwrStateResidencyTicks::UNDEFINED   6963063000                       # Cumulative time (in ticks) in various power states
system.tsunami.fake_ata1.pwrStateResidencyTicks::UNDEFINED   6963063000                       # Cumulative time (in ticks) in various power states
system.tsunami.fake_pnp_addr.pwrStateResidencyTicks::UNDEFINED   6963063000                       # Cumulative time (in ticks) in various power states
system.tsunami.fake_pnp_read0.pwrStateResidencyTicks::UNDEFINED   6963063000                       # Cumulative time (in ticks) in various power states
system.tsunami.fake_pnp_read1.pwrStateResidencyTicks::UNDEFINED   6963063000                       # Cumulative time (in ticks) in various power states
system.tsunami.fake_pnp_read2.pwrStateResidencyTicks::UNDEFINED   6963063000                       # Cumulative time (in ticks) in various power states
system.tsunami.fake_pnp_read3.pwrStateResidencyTicks::UNDEFINED   6963063000                       # Cumulative time (in ticks) in various power states
system.tsunami.fake_pnp_read4.pwrStateResidencyTicks::UNDEFINED   6963063000                       # Cumulative time (in ticks) in various power states
system.tsunami.fake_pnp_read5.pwrStateResidencyTicks::UNDEFINED   6963063000                       # Cumulative time (in ticks) in various power states
system.tsunami.fake_pnp_read6.pwrStateResidencyTicks::UNDEFINED   6963063000                       # Cumulative time (in ticks) in various power states
system.tsunami.fake_pnp_read7.pwrStateResidencyTicks::UNDEFINED   6963063000                       # Cumulative time (in ticks) in various power states
system.tsunami.fake_pnp_write.pwrStateResidencyTicks::UNDEFINED   6963063000                       # Cumulative time (in ticks) in various power states
system.tsunami.fake_ppc.pwrStateResidencyTicks::UNDEFINED   6963063000                       # Cumulative time (in ticks) in various power states
system.tsunami.fake_sm_chip.pwrStateResidencyTicks::UNDEFINED   6963063000                       # Cumulative time (in ticks) in various power states
system.tsunami.fake_uart1.pwrStateResidencyTicks::UNDEFINED   6963063000                       # Cumulative time (in ticks) in various power states
system.tsunami.fake_uart2.pwrStateResidencyTicks::UNDEFINED   6963063000                       # Cumulative time (in ticks) in various power states
system.tsunami.fake_uart3.pwrStateResidencyTicks::UNDEFINED   6963063000                       # Cumulative time (in ticks) in various power states
system.tsunami.fake_uart4.pwrStateResidencyTicks::UNDEFINED   6963063000                       # Cumulative time (in ticks) in various power states
system.tsunami.fb.pwrStateResidencyTicks::UNDEFINED   6963063000                       # Cumulative time (in ticks) in various power states
system.tsunami.ide.pwrStateResidencyTicks::UNDEFINED   6963063000                       # Cumulative time (in ticks) in various power states
system.tsunami.io.pwrStateResidencyTicks::UNDEFINED   6963063000                       # Cumulative time (in ticks) in various power states
system.tsunami.uart.pwrStateResidencyTicks::UNDEFINED   6963063000                       # Cumulative time (in ticks) in various power states

---------- End Simulation Statistics   ----------
