
---------- Begin Simulation Statistics ----------
sim_seconds                                  2.640432                       # Number of seconds simulated
sim_ticks                                2640431615500                       # Number of ticks simulated
final_tick                               2640431615500                       # Number of ticks from beginning of simulation (restored from checkpoints and never reset)
sim_freq                                 1000000000000                       # Frequency of simulated ticks
host_inst_rate                                 225508                       # Simulator instruction rate (inst/s)
host_op_rate                                   225508                       # Simulator op (including micro ops) rate (op/s)
host_tick_rate                             6109187000                       # Simulator tick rate (ticks/s)
host_mem_usage                                 732004                       # Number of bytes of host memory used
host_seconds                                   432.21                       # Real time elapsed on the host
sim_insts                                    97466267                       # Number of instructions simulated
sim_ops                                      97466267                       # Number of ops (including micro ops) simulated
system.voltage_domain.voltage                       1                       # Voltage in Volts
system.clk_domain.clock                          1000                       # Clock period in ticks
system.mem_ctrls.pwrStateResidencyTicks::UNDEFINED 2640431615500                       # Cumulative time (in ticks) in various power states
system.mem_ctrls.bytes_read::cpu.inst       105538304                       # Number of bytes read from this memory
system.mem_ctrls.bytes_read::cpu.data       309138816                       # Number of bytes read from this memory
system.mem_ctrls.bytes_read::tsunami.ide         4096                       # Number of bytes read from this memory
system.mem_ctrls.bytes_read::total          414681216                       # Number of bytes read from this memory
system.mem_ctrls.bytes_inst_read::cpu.inst    105538304                       # Number of instructions bytes read from this memory
system.mem_ctrls.bytes_inst_read::total     105538304                       # Number of instructions bytes read from this memory
system.mem_ctrls.bytes_written::writebacks     54425472                       # Number of bytes written to this memory
system.mem_ctrls.bytes_written::total        54425472                       # Number of bytes written to this memory
system.mem_ctrls.num_reads::cpu.inst           824518                       # Number of read requests responded to by this memory
system.mem_ctrls.num_reads::cpu.data          2415147                       # Number of read requests responded to by this memory
system.mem_ctrls.num_reads::tsunami.ide            32                       # Number of read requests responded to by this memory
system.mem_ctrls.num_reads::total             3239697                       # Number of read requests responded to by this memory
system.mem_ctrls.num_writes::writebacks        425199                       # Number of write requests responded to by this memory
system.mem_ctrls.num_writes::total             425199                       # Number of write requests responded to by this memory
system.mem_ctrls.bw_read::cpu.inst           39970096                       # Total read bandwidth from this memory (bytes/s)
system.mem_ctrls.bw_read::cpu.data          117078895                       # Total read bandwidth from this memory (bytes/s)
system.mem_ctrls.bw_read::tsunami.ide            1551                       # Total read bandwidth from this memory (bytes/s)
system.mem_ctrls.bw_read::total             157050542                       # Total read bandwidth from this memory (bytes/s)
system.mem_ctrls.bw_inst_read::cpu.inst      39970096                       # Instruction read bandwidth from this memory (bytes/s)
system.mem_ctrls.bw_inst_read::total         39970096                       # Instruction read bandwidth from this memory (bytes/s)
system.mem_ctrls.bw_write::writebacks        20612339                       # Write bandwidth from this memory (bytes/s)
system.mem_ctrls.bw_write::total             20612339                       # Write bandwidth from this memory (bytes/s)
system.mem_ctrls.bw_total::writebacks        20612339                       # Total bandwidth to/from this memory (bytes/s)
system.mem_ctrls.bw_total::cpu.inst          39970096                       # Total bandwidth to/from this memory (bytes/s)
system.mem_ctrls.bw_total::cpu.data         117078895                       # Total bandwidth to/from this memory (bytes/s)
system.mem_ctrls.bw_total::tsunami.ide           1551                       # Total bandwidth to/from this memory (bytes/s)
system.mem_ctrls.bw_total::total            177662881                       # Total bandwidth to/from this memory (bytes/s)
system.mem_ctrls.readReqs                     3239697                       # Number of read requests accepted
system.mem_ctrls.writeReqs                     425199                       # Number of write requests accepted
system.mem_ctrls.readBursts                   6479394                       # Number of DRAM read bursts, including those serviced by the write queue
system.mem_ctrls.writeBursts                   850398                       # Number of DRAM write bursts, including those merged in the write queue
system.mem_ctrls.bytesReadDRAM              411989440                       # Total number of bytes read from DRAM
system.mem_ctrls.bytesReadWrQ                 2691776                       # Total number of bytes read from write queue
system.mem_ctrls.bytesWritten                54133120                       # Total number of bytes written to DRAM
system.mem_ctrls.bytesReadSys               414681216                       # Total read bytes from the system interface side
system.mem_ctrls.bytesWrittenSys             54425472                       # Total written bytes from the system interface side
system.mem_ctrls.servicedByWrQ                  42059                       # Number of DRAM read bursts serviced by the write queue
system.mem_ctrls.mergedWrBursts                  4544                       # Number of DRAM write bursts merged with an existing one
system.mem_ctrls.neitherReadNorWriteReqs            0                       # Number of requests that are neither read nor write
system.mem_ctrls.perBankRdBursts::0            406609                       # Per bank write bursts
system.mem_ctrls.perBankRdBursts::1            431272                       # Per bank write bursts
system.mem_ctrls.perBankRdBursts::2            409523                       # Per bank write bursts
system.mem_ctrls.perBankRdBursts::3            236717                       # Per bank write bursts
system.mem_ctrls.perBankRdBursts::4            278235                       # Per bank write bursts
system.mem_ctrls.perBankRdBursts::5            343521                       # Per bank write bursts
system.mem_ctrls.perBankRdBursts::6            559425                       # Per bank write bursts
system.mem_ctrls.perBankRdBursts::7            247722                       # Per bank write bursts
system.mem_ctrls.perBankRdBursts::8            345003                       # Per bank write bursts
system.mem_ctrls.perBankRdBursts::9            473373                       # Per bank write bursts
system.mem_ctrls.perBankRdBursts::10           378541                       # Per bank write bursts
system.mem_ctrls.perBankRdBursts::11           545070                       # Per bank write bursts
system.mem_ctrls.perBankRdBursts::12           520761                       # Per bank write bursts
system.mem_ctrls.perBankRdBursts::13           493039                       # Per bank write bursts
system.mem_ctrls.perBankRdBursts::14           272649                       # Per bank write bursts
system.mem_ctrls.perBankRdBursts::15           495875                       # Per bank write bursts
system.mem_ctrls.perBankWrBursts::0             43750                       # Per bank write bursts
system.mem_ctrls.perBankWrBursts::1             93324                       # Per bank write bursts
system.mem_ctrls.perBankWrBursts::2             37026                       # Per bank write bursts
system.mem_ctrls.perBankWrBursts::3             31480                       # Per bank write bursts
system.mem_ctrls.perBankWrBursts::4             56062                       # Per bank write bursts
system.mem_ctrls.perBankWrBursts::5             31496                       # Per bank write bursts
system.mem_ctrls.perBankWrBursts::6             37886                       # Per bank write bursts
system.mem_ctrls.perBankWrBursts::7             53843                       # Per bank write bursts
system.mem_ctrls.perBankWrBursts::8             44209                       # Per bank write bursts
system.mem_ctrls.perBankWrBursts::9             61700                       # Per bank write bursts
system.mem_ctrls.perBankWrBursts::10            53204                       # Per bank write bursts
system.mem_ctrls.perBankWrBursts::11            50531                       # Per bank write bursts
system.mem_ctrls.perBankWrBursts::12            49729                       # Per bank write bursts
system.mem_ctrls.perBankWrBursts::13            73164                       # Per bank write bursts
system.mem_ctrls.perBankWrBursts::14            43767                       # Per bank write bursts
system.mem_ctrls.perBankWrBursts::15            84659                       # Per bank write bursts
system.mem_ctrls.numRdRetry                        16                       # Number of times read queue was full causing retry
system.mem_ctrls.numWrRetry                      5563                       # Number of times write queue was full causing retry
system.mem_ctrls.totGap                  2640431602500                       # Total gap between requests
system.mem_ctrls.readPktSize::0                     0                       # Read request sizes (log2)
system.mem_ctrls.readPktSize::1                     0                       # Read request sizes (log2)
system.mem_ctrls.readPktSize::2                     0                       # Read request sizes (log2)
system.mem_ctrls.readPktSize::3                     0                       # Read request sizes (log2)
system.mem_ctrls.readPktSize::4                     0                       # Read request sizes (log2)
system.mem_ctrls.readPktSize::5                     0                       # Read request sizes (log2)
system.mem_ctrls.readPktSize::6               6479394                       # Read request sizes (log2)
system.mem_ctrls.writePktSize::0                    0                       # Write request sizes (log2)
system.mem_ctrls.writePktSize::1                    0                       # Write request sizes (log2)
system.mem_ctrls.writePktSize::2                    0                       # Write request sizes (log2)
system.mem_ctrls.writePktSize::3                    0                       # Write request sizes (log2)
system.mem_ctrls.writePktSize::4                    0                       # Write request sizes (log2)
system.mem_ctrls.writePktSize::5                    0                       # Write request sizes (log2)
system.mem_ctrls.writePktSize::6               850398                       # Write request sizes (log2)
system.mem_ctrls.rdQLenPdf::0                 3219161                       # What read queue length does an incoming req see
system.mem_ctrls.rdQLenPdf::1                 3218108                       # What read queue length does an incoming req see
system.mem_ctrls.rdQLenPdf::2                       1                       # What read queue length does an incoming req see
system.mem_ctrls.rdQLenPdf::3                       1                       # What read queue length does an incoming req see
system.mem_ctrls.rdQLenPdf::4                       1                       # What read queue length does an incoming req see
system.mem_ctrls.rdQLenPdf::5                       1                       # What read queue length does an incoming req see
system.mem_ctrls.rdQLenPdf::6                       2                       # What read queue length does an incoming req see
system.mem_ctrls.rdQLenPdf::7                       2                       # What read queue length does an incoming req see
system.mem_ctrls.rdQLenPdf::8                       1                       # What read queue length does an incoming req see
system.mem_ctrls.rdQLenPdf::9                       1                       # What read queue length does an incoming req see
system.mem_ctrls.rdQLenPdf::10                      1                       # What read queue length does an incoming req see
system.mem_ctrls.rdQLenPdf::11                      1                       # What read queue length does an incoming req see
system.mem_ctrls.rdQLenPdf::12                      1                       # What read queue length does an incoming req see
system.mem_ctrls.rdQLenPdf::13                      1                       # What read queue length does an incoming req see
system.mem_ctrls.rdQLenPdf::14                      1                       # What read queue length does an incoming req see
system.mem_ctrls.rdQLenPdf::15                      1                       # What read queue length does an incoming req see
system.mem_ctrls.rdQLenPdf::16                      1                       # What read queue length does an incoming req see
system.mem_ctrls.rdQLenPdf::17                      1                       # What read queue length does an incoming req see
system.mem_ctrls.rdQLenPdf::18                      1                       # What read queue length does an incoming req see
system.mem_ctrls.rdQLenPdf::19                      1                       # What read queue length does an incoming req see
system.mem_ctrls.rdQLenPdf::20                      1                       # What read queue length does an incoming req see
system.mem_ctrls.rdQLenPdf::21                      1                       # What read queue length does an incoming req see
system.mem_ctrls.rdQLenPdf::22                      1                       # What read queue length does an incoming req see
system.mem_ctrls.rdQLenPdf::23                      1                       # What read queue length does an incoming req see
system.mem_ctrls.rdQLenPdf::24                      1                       # What read queue length does an incoming req see
system.mem_ctrls.rdQLenPdf::25                      1                       # What read queue length does an incoming req see
system.mem_ctrls.rdQLenPdf::26                      3                       # What read queue length does an incoming req see
system.mem_ctrls.rdQLenPdf::27                      4                       # What read queue length does an incoming req see
system.mem_ctrls.rdQLenPdf::28                      4                       # What read queue length does an incoming req see
system.mem_ctrls.rdQLenPdf::29                      5                       # What read queue length does an incoming req see
system.mem_ctrls.rdQLenPdf::30                     13                       # What read queue length does an incoming req see
system.mem_ctrls.rdQLenPdf::31                     11                       # What read queue length does an incoming req see
system.mem_ctrls.wrQLenPdf::0                       1                       # What write queue length does an incoming req see
system.mem_ctrls.wrQLenPdf::1                       1                       # What write queue length does an incoming req see
system.mem_ctrls.wrQLenPdf::2                       1                       # What write queue length does an incoming req see
system.mem_ctrls.wrQLenPdf::3                       1                       # What write queue length does an incoming req see
system.mem_ctrls.wrQLenPdf::4                       1                       # What write queue length does an incoming req see
system.mem_ctrls.wrQLenPdf::5                       1                       # What write queue length does an incoming req see
system.mem_ctrls.wrQLenPdf::6                       1                       # What write queue length does an incoming req see
system.mem_ctrls.wrQLenPdf::7                       1                       # What write queue length does an incoming req see
system.mem_ctrls.wrQLenPdf::8                       1                       # What write queue length does an incoming req see
system.mem_ctrls.wrQLenPdf::9                       1                       # What write queue length does an incoming req see
system.mem_ctrls.wrQLenPdf::10                      1                       # What write queue length does an incoming req see
system.mem_ctrls.wrQLenPdf::11                      1                       # What write queue length does an incoming req see
system.mem_ctrls.wrQLenPdf::12                      1                       # What write queue length does an incoming req see
system.mem_ctrls.wrQLenPdf::13                      1                       # What write queue length does an incoming req see
system.mem_ctrls.wrQLenPdf::14                      1                       # What write queue length does an incoming req see
system.mem_ctrls.wrQLenPdf::15                  12908                       # What write queue length does an incoming req see
system.mem_ctrls.wrQLenPdf::16                  14045                       # What write queue length does an incoming req see
system.mem_ctrls.wrQLenPdf::17                  42558                       # What write queue length does an incoming req see
system.mem_ctrls.wrQLenPdf::18                  47932                       # What write queue length does an incoming req see
system.mem_ctrls.wrQLenPdf::19                  48289                       # What write queue length does an incoming req see
system.mem_ctrls.wrQLenPdf::20                  48367                       # What write queue length does an incoming req see
system.mem_ctrls.wrQLenPdf::21                  48384                       # What write queue length does an incoming req see
system.mem_ctrls.wrQLenPdf::22                  48389                       # What write queue length does an incoming req see
system.mem_ctrls.wrQLenPdf::23                  48381                       # What write queue length does an incoming req see
system.mem_ctrls.wrQLenPdf::24                  48394                       # What write queue length does an incoming req see
system.mem_ctrls.wrQLenPdf::25                  48492                       # What write queue length does an incoming req see
system.mem_ctrls.wrQLenPdf::26                  48673                       # What write queue length does an incoming req see
system.mem_ctrls.wrQLenPdf::27                  48731                       # What write queue length does an incoming req see
system.mem_ctrls.wrQLenPdf::28                  48866                       # What write queue length does an incoming req see
system.mem_ctrls.wrQLenPdf::29                  49257                       # What write queue length does an incoming req see
system.mem_ctrls.wrQLenPdf::30                  49183                       # What write queue length does an incoming req see
system.mem_ctrls.wrQLenPdf::31                  48999                       # What write queue length does an incoming req see
system.mem_ctrls.wrQLenPdf::32                  49102                       # What write queue length does an incoming req see
system.mem_ctrls.wrQLenPdf::33                   7430                       # What write queue length does an incoming req see
system.mem_ctrls.wrQLenPdf::34                    483                       # What write queue length does an incoming req see
system.mem_ctrls.wrQLenPdf::35                    587                       # What write queue length does an incoming req see
system.mem_ctrls.wrQLenPdf::36                    668                       # What write queue length does an incoming req see
system.mem_ctrls.wrQLenPdf::37                    532                       # What write queue length does an incoming req see
system.mem_ctrls.wrQLenPdf::38                    413                       # What write queue length does an incoming req see
system.mem_ctrls.wrQLenPdf::39                    407                       # What write queue length does an incoming req see
system.mem_ctrls.wrQLenPdf::40                    404                       # What write queue length does an incoming req see
system.mem_ctrls.wrQLenPdf::41                    358                       # What write queue length does an incoming req see
system.mem_ctrls.wrQLenPdf::42                    385                       # What write queue length does an incoming req see
system.mem_ctrls.wrQLenPdf::43                    472                       # What write queue length does an incoming req see
system.mem_ctrls.wrQLenPdf::44                    376                       # What write queue length does an incoming req see
system.mem_ctrls.wrQLenPdf::45                    297                       # What write queue length does an incoming req see
system.mem_ctrls.wrQLenPdf::46                    304                       # What write queue length does an incoming req see
system.mem_ctrls.wrQLenPdf::47                    362                       # What write queue length does an incoming req see
system.mem_ctrls.wrQLenPdf::48                    389                       # What write queue length does an incoming req see
system.mem_ctrls.wrQLenPdf::49                    400                       # What write queue length does an incoming req see
system.mem_ctrls.wrQLenPdf::50                    471                       # What write queue length does an incoming req see
system.mem_ctrls.wrQLenPdf::51                    524                       # What write queue length does an incoming req see
system.mem_ctrls.wrQLenPdf::52                    506                       # What write queue length does an incoming req see
system.mem_ctrls.wrQLenPdf::53                    495                       # What write queue length does an incoming req see
system.mem_ctrls.wrQLenPdf::54                    496                       # What write queue length does an incoming req see
system.mem_ctrls.wrQLenPdf::55                    499                       # What write queue length does an incoming req see
system.mem_ctrls.wrQLenPdf::56                    581                       # What write queue length does an incoming req see
system.mem_ctrls.wrQLenPdf::57                    736                       # What write queue length does an incoming req see
system.mem_ctrls.wrQLenPdf::58                    680                       # What write queue length does an incoming req see
system.mem_ctrls.wrQLenPdf::59                    802                       # What write queue length does an incoming req see
system.mem_ctrls.wrQLenPdf::60                   1043                       # What write queue length does an incoming req see
system.mem_ctrls.wrQLenPdf::61                   1600                       # What write queue length does an incoming req see
system.mem_ctrls.wrQLenPdf::62                  12662                       # What write queue length does an incoming req see
system.mem_ctrls.wrQLenPdf::63                  11527                       # What write queue length does an incoming req see
system.mem_ctrls.bytesPerActivate::samples      1184323                       # Bytes accessed per row activation
system.mem_ctrls.bytesPerActivate::mean    393.573929                       # Bytes accessed per row activation
system.mem_ctrls.bytesPerActivate::gmean   275.468844                       # Bytes accessed per row activation
system.mem_ctrls.bytesPerActivate::stdev   341.468725                       # Bytes accessed per row activation
system.mem_ctrls.bytesPerActivate::0-127        20331      1.72%      1.72% # Bytes accessed per row activation
system.mem_ctrls.bytesPerActivate::128-255       502753     42.45%     44.17% # Bytes accessed per row activation
system.mem_ctrls.bytesPerActivate::256-383       218223     18.43%     62.59% # Bytes accessed per row activation
system.mem_ctrls.bytesPerActivate::384-511        92498      7.81%     70.40% # Bytes accessed per row activation
system.mem_ctrls.bytesPerActivate::512-639        52313      4.42%     74.82% # Bytes accessed per row activation
system.mem_ctrls.bytesPerActivate::640-767        37772      3.19%     78.01% # Bytes accessed per row activation
system.mem_ctrls.bytesPerActivate::768-895        27078      2.29%     80.30% # Bytes accessed per row activation
system.mem_ctrls.bytesPerActivate::896-1023        21872      1.85%     82.14% # Bytes accessed per row activation
system.mem_ctrls.bytesPerActivate::1024-1151       211483     17.86%    100.00% # Bytes accessed per row activation
system.mem_ctrls.bytesPerActivate::total      1184323                       # Bytes accessed per row activation
system.mem_ctrls.rdPerTurnAround::samples        50556                       # Reads before turning the bus around for writes
system.mem_ctrls.rdPerTurnAround::mean     127.330623                       # Reads before turning the bus around for writes
system.mem_ctrls.rdPerTurnAround::stdev   4598.675312                       # Reads before turning the bus around for writes
system.mem_ctrls.rdPerTurnAround::0-32767        50555    100.00%    100.00% # Reads before turning the bus around for writes
system.mem_ctrls.rdPerTurnAround::1.01581e+06-1.04858e+06            1      0.00%    100.00% # Reads before turning the bus around for writes
system.mem_ctrls.rdPerTurnAround::total         50556                       # Reads before turning the bus around for writes
system.mem_ctrls.wrPerTurnAround::samples        50556                       # Writes before turning the bus around for reads
system.mem_ctrls.wrPerTurnAround::mean      16.730556                       # Writes before turning the bus around for reads
system.mem_ctrls.wrPerTurnAround::gmean     16.668430                       # Writes before turning the bus around for reads
system.mem_ctrls.wrPerTurnAround::stdev      2.021659                       # Writes before turning the bus around for reads
system.mem_ctrls.wrPerTurnAround::16-19         49548     98.01%     98.01% # Writes before turning the bus around for reads
system.mem_ctrls.wrPerTurnAround::20-23           610      1.21%     99.21% # Writes before turning the bus around for reads
system.mem_ctrls.wrPerTurnAround::24-27           264      0.52%     99.73% # Writes before turning the bus around for reads
system.mem_ctrls.wrPerTurnAround::28-31            84      0.17%     99.90% # Writes before turning the bus around for reads
system.mem_ctrls.wrPerTurnAround::32-35            27      0.05%     99.95% # Writes before turning the bus around for reads
system.mem_ctrls.wrPerTurnAround::36-39            11      0.02%     99.98% # Writes before turning the bus around for reads
system.mem_ctrls.wrPerTurnAround::40-43             3      0.01%     99.98% # Writes before turning the bus around for reads
system.mem_ctrls.wrPerTurnAround::60-63             1      0.00%     99.98% # Writes before turning the bus around for reads
system.mem_ctrls.wrPerTurnAround::68-71             2      0.00%     99.99% # Writes before turning the bus around for reads
system.mem_ctrls.wrPerTurnAround::92-95             1      0.00%     99.99% # Writes before turning the bus around for reads
system.mem_ctrls.wrPerTurnAround::104-107            1      0.00%     99.99% # Writes before turning the bus around for reads
system.mem_ctrls.wrPerTurnAround::116-119            1      0.00%     99.99% # Writes before turning the bus around for reads
system.mem_ctrls.wrPerTurnAround::140-143            1      0.00%    100.00% # Writes before turning the bus around for reads
system.mem_ctrls.wrPerTurnAround::144-147            1      0.00%    100.00% # Writes before turning the bus around for reads
system.mem_ctrls.wrPerTurnAround::216-219            1      0.00%    100.00% # Writes before turning the bus around for reads
system.mem_ctrls.wrPerTurnAround::total         50556                       # Writes before turning the bus around for reads
system.mem_ctrls.totQLat                 123970421356                       # Total ticks spent queuing
system.mem_ctrls.totMemAccLat            244670452606                       # Total ticks spent from burst creation until serviced by the DRAM
system.mem_ctrls.totBusLat                32186675000                       # Total ticks spent in databus transfers
system.mem_ctrls.avgQLat                     19258.03                       # Average queueing delay per DRAM burst
system.mem_ctrls.avgBusLat                    5000.00                       # Average bus latency per DRAM burst
system.mem_ctrls.avgMemAccLat                38008.03                       # Average memory access latency per DRAM burst
system.mem_ctrls.avgRdBW                       156.03                       # Average DRAM read bandwidth in MiByte/s
system.mem_ctrls.avgWrBW                        20.50                       # Average achieved write bandwidth in MiByte/s
system.mem_ctrls.avgRdBWSys                    157.05                       # Average system read bandwidth in MiByte/s
system.mem_ctrls.avgWrBWSys                     20.61                       # Average system write bandwidth in MiByte/s
system.mem_ctrls.peakBW                      12800.00                       # Theoretical peak bandwidth in MiByte/s
system.mem_ctrls.busUtil                         1.38                       # Data bus utilization in percentage
system.mem_ctrls.busUtilRead                     1.22                       # Data bus utilization in percentage for reads
system.mem_ctrls.busUtilWrite                    0.16                       # Data bus utilization in percentage for writes
system.mem_ctrls.avgRdQLen                       1.99                       # Average read queue length when enqueuing
system.mem_ctrls.avgWrQLen                      26.98                       # Average write queue length when enqueuing
system.mem_ctrls.readRowHits                  5440441                       # Number of row buffer hits during reads
system.mem_ctrls.writeRowHits                  658389                       # Number of row buffer hits during writes
system.mem_ctrls.readRowHitRate                 84.51                       # Row buffer hit rate for reads
system.mem_ctrls.writeRowHitRate                77.84                       # Row buffer hit rate for writes
system.mem_ctrls.avgGap                     720465.63                       # Average gap between requests
system.mem_ctrls.pageHitRate                    83.74                       # Row buffer hit rate, read and write combined
system.mem_ctrls_0.actEnergy               3363618300                       # Energy for activate commands per rank (pJ)
system.mem_ctrls_0.preEnergy               1787778960                       # Energy for precharge commands per rank (pJ)
system.mem_ctrls_0.readEnergy             20798991360                       # Energy for read commands per rank (pJ)
system.mem_ctrls_0.writeEnergy             2009005740                       # Energy for write commands per rank (pJ)
system.mem_ctrls_0.refreshEnergy         32563627200.000004                       # Energy for refresh commands per rank (pJ)
system.mem_ctrls_0.actBackEnergy          43334385660                       # Energy for active background per rank (pJ)
system.mem_ctrls_0.preBackEnergy           1171486560                       # Energy for precharge background per rank (pJ)
system.mem_ctrls_0.actPowerDownEnergy    123626188500                       # Energy for active power-down per rank (pJ)
system.mem_ctrls_0.prePowerDownEnergy     13468143360                       # Energy for precharge power-down per rank (pJ)
system.mem_ctrls_0.selfRefreshEnergy     537308281920                       # Energy for self refresh per rank (pJ)
system.mem_ctrls_0.totalEnergy           779432806500                       # Total energy per rank (pJ)
system.mem_ctrls_0.averagePower            295.191438                       # Core power per rank (mW)
system.mem_ctrls_0.totalIdleTime         2542343096492                       # Total Idle time Per DRAM Rank
system.mem_ctrls_0.memoryStateTime::IDLE    848943500                       # Time in different power states
system.mem_ctrls_0.memoryStateTime::REF   13782126000                       # Time in different power states
system.mem_ctrls_0.memoryStateTime::SREF 2236163044000                       # Time in different power states
system.mem_ctrls_0.memoryStateTime::PRE_PDN  35072923500                       # Time in different power states
system.mem_ctrls_0.memoryStateTime::ACT   83456363758                       # Time in different power states
system.mem_ctrls_0.memoryStateTime::ACT_PDN 271108214742                       # Time in different power states
system.mem_ctrls_1.actEnergy               5092533600                       # Energy for activate commands per rank (pJ)
system.mem_ctrls_1.preEnergy               2706726825                       # Energy for precharge commands per rank (pJ)
system.mem_ctrls_1.readEnergy             25163580540                       # Energy for read commands per rank (pJ)
system.mem_ctrls_1.writeEnergy             2406226860                       # Energy for write commands per rank (pJ)
system.mem_ctrls_1.refreshEnergy         32528592720.000004                       # Energy for refresh commands per rank (pJ)
system.mem_ctrls_1.actBackEnergy          47447787240                       # Energy for active background per rank (pJ)
system.mem_ctrls_1.preBackEnergy           1142288160                       # Energy for precharge background per rank (pJ)
system.mem_ctrls_1.actPowerDownEnergy    118990136820                       # Energy for active power-down per rank (pJ)
system.mem_ctrls_1.prePowerDownEnergy     12822132960                       # Energy for precharge power-down per rank (pJ)
system.mem_ctrls_1.selfRefreshEnergy     538192575780                       # Energy for self refresh per rank (pJ)
system.mem_ctrls_1.totalEnergy           786495196335                       # Total energy per rank (pJ)
system.mem_ctrls_1.averagePower            297.866149                       # Core power per rank (mW)
system.mem_ctrls_1.totalIdleTime         2533399244500                       # Total Idle time Per DRAM Rank
system.mem_ctrls_1.memoryStateTime::IDLE    889243500                       # Time in different power states
system.mem_ctrls_1.memoryStateTime::REF   13769460000                       # Time in different power states
system.mem_ctrls_1.memoryStateTime::SREF 2239064655250                       # Time in different power states
system.mem_ctrls_1.memoryStateTime::PRE_PDN  33390564000                       # Time in different power states
system.mem_ctrls_1.memoryStateTime::ACT   92373667500                       # Time in different power states
system.mem_ctrls_1.memoryStateTime::ACT_PDN 260944025250                       # Time in different power states
system.pwrStateResidencyTicks::UNDEFINED 2640431615500                       # Cumulative time (in ticks) in various power states
system.bridge.pwrStateResidencyTicks::UNDEFINED 2640431615500                       # Cumulative time (in ticks) in various power states
system.cpu_voltage_domain.voltage                   1                       # Voltage in Volts
system.cpu_clk_domain.clock                       500                       # Clock period in ticks
system.cpu.dtb.fetch_hits                           0                       # ITB hits
system.cpu.dtb.fetch_misses                         0                       # ITB misses
system.cpu.dtb.fetch_acv                            0                       # ITB acv
system.cpu.dtb.fetch_accesses                       0                       # ITB accesses
system.cpu.dtb.read_hits                     17013404                       # DTB read hits
system.cpu.dtb.read_misses                      12434                       # DTB read misses
system.cpu.dtb.read_acv                            98                       # DTB read access violations
system.cpu.dtb.read_accesses                   817021                       # DTB read accesses
system.cpu.dtb.write_hits                     8895536                       # DTB write hits
system.cpu.dtb.write_misses                      1307                       # DTB write misses
system.cpu.dtb.write_acv                          169                       # DTB write access violations
system.cpu.dtb.write_accesses                  324494                       # DTB write accesses
system.cpu.dtb.data_hits                     25908940                       # DTB hits
system.cpu.dtb.data_misses                      13741                       # DTB misses
system.cpu.dtb.data_acv                           267                       # DTB access violations
system.cpu.dtb.data_accesses                  1141515                       # DTB accesses
system.cpu.itb.fetch_hits                     5687604                       # ITB hits
system.cpu.itb.fetch_misses                      6040                       # ITB misses
system.cpu.itb.fetch_acv                            1                       # ITB acv
system.cpu.itb.fetch_accesses                 5693644                       # ITB accesses
system.cpu.itb.read_hits                            0                       # DTB read hits
system.cpu.itb.read_misses                          0                       # DTB read misses
system.cpu.itb.read_acv                             0                       # DTB read access violations
system.cpu.itb.read_accesses                        0                       # DTB read accesses
system.cpu.itb.write_hits                           0                       # DTB write hits
system.cpu.itb.write_misses                         0                       # DTB write misses
system.cpu.itb.write_acv                            0                       # DTB write access violations
system.cpu.itb.write_accesses                       0                       # DTB write accesses
system.cpu.itb.data_hits                            0                       # DTB hits
system.cpu.itb.data_misses                          0                       # DTB misses
system.cpu.itb.data_acv                             0                       # DTB access violations
system.cpu.itb.data_accesses                        0                       # DTB accesses
system.cpu.numPwrStateTransitions               14140                       # Number of power state transitions
system.cpu.pwrStateClkGateDist::samples          7070                       # Distribution of time spent in the clock gated state
system.cpu.pwrStateClkGateDist::mean     310610508.698727                       # Distribution of time spent in the clock gated state
system.cpu.pwrStateClkGateDist::stdev    452065476.734757                       # Distribution of time spent in the clock gated state
system.cpu.pwrStateClkGateDist::1000-5e+10         7070    100.00%    100.00% # Distribution of time spent in the clock gated state
system.cpu.pwrStateClkGateDist::min_value       116500                       # Distribution of time spent in the clock gated state
system.cpu.pwrStateClkGateDist::max_value   2000000000                       # Distribution of time spent in the clock gated state
system.cpu.pwrStateClkGateDist::total            7070                       # Distribution of time spent in the clock gated state
system.cpu.pwrStateResidencyTicks::ON    444415319000                       # Cumulative time (in ticks) in various power states
system.cpu.pwrStateResidencyTicks::CLK_GATED 2196016296500                       # Cumulative time (in ticks) in various power states
system.cpu.numCycles                       5280863231                       # number of cpu cycles simulated
system.cpu.numWorkItemsStarted                      0                       # number of work items this cpu started
system.cpu.numWorkItemsCompleted                    0                       # number of work items this cpu completed
system.cpu.kern.inst.arm                            0                       # number of arm instructions executed
system.cpu.kern.inst.quiesce                     7070                       # number of quiesce instructions executed
system.cpu.kern.callpal::cserve                     1      0.00%      0.00% # number of callpals executed
system.cpu.kern.callpal::wrmces                     1      0.00%      0.00% # number of callpals executed
system.cpu.kern.callpal::wrfen                      1      0.00%      0.00% # number of callpals executed
system.cpu.kern.callpal::wrvptptr                   1      0.00%      0.00% # number of callpals executed
system.cpu.kern.callpal::swpctx                  4477      2.07%      2.07% # number of callpals executed
system.cpu.kern.callpal::tbi                       65      0.03%      2.10% # number of callpals executed
system.cpu.kern.callpal::wrent                      7      0.00%      2.10% # number of callpals executed
system.cpu.kern.callpal::swpipl                199007     91.81%     93.91% # number of callpals executed
system.cpu.kern.callpal::rdps                    6149      2.84%     96.75% # number of callpals executed
system.cpu.kern.callpal::wrkgp                      1      0.00%     96.75% # number of callpals executed
system.cpu.kern.callpal::wrusp                      8      0.00%     96.75% # number of callpals executed
system.cpu.kern.callpal::rdusp                     10      0.00%     96.76% # number of callpals executed
system.cpu.kern.callpal::whami                      2      0.00%     96.76% # number of callpals executed
system.cpu.kern.callpal::rti                     6233      2.88%     99.63% # number of callpals executed
system.cpu.kern.callpal::callsys                  559      0.26%     99.89% # number of callpals executed
system.cpu.kern.callpal::imb                      235      0.11%    100.00% # number of callpals executed
system.cpu.kern.callpal::total                 216757                       # number of callpals executed
system.cpu.kern.inst.hwrei                     239557                       # number of hwrei instructions executed
system.cpu.kern.mode_switch::kernel              6913                       # number of protection mode switches
system.cpu.kern.mode_switch::user                1969                       # number of protection mode switches
system.cpu.kern.mode_switch::idle                2303                       # number of protection mode switches
system.cpu.kern.mode_good::kernel                2029                      
system.cpu.kern.mode_good::user                  1969                      
system.cpu.kern.mode_good::idle                    60                      
system.cpu.kern.mode_switch_good::kernel     0.293505                       # fraction of useful protection mode switches
system.cpu.kern.mode_switch_good::user              1                       # fraction of useful protection mode switches
system.cpu.kern.mode_switch_good::idle       0.026053                       # fraction of useful protection mode switches
system.cpu.kern.mode_switch_good::total      0.362807                       # fraction of useful protection mode switches
system.cpu.kern.mode_ticks::kernel       354092205000     13.41%     13.41% # number of ticks spent at the given mode
system.cpu.kern.mode_ticks::user          10184773000      0.39%     13.80% # number of ticks spent at the given mode
system.cpu.kern.mode_ticks::idle         2276152482500     86.20%    100.00% # number of ticks spent at the given mode
system.cpu.kern.swap_context                     4478                       # number of times the context was actually changed
system.cpu.kern.ipl_count::0                    83085     39.95%     39.95% # number of times we switched to this ipl
system.cpu.kern.ipl_count::21                     117      0.06%     40.00% # number of times we switched to this ipl
system.cpu.kern.ipl_count::22                    2632      1.27%     41.27% # number of times we switched to this ipl
system.cpu.kern.ipl_count::31                  122156     58.73%    100.00% # number of times we switched to this ipl
system.cpu.kern.ipl_count::total               207990                       # number of times we switched to this ipl
system.cpu.kern.ipl_good::0                     81548     49.17%     49.17% # number of times we switched to this ipl from a different ipl
system.cpu.kern.ipl_good::21                      117      0.07%     49.24% # number of times we switched to this ipl from a different ipl
system.cpu.kern.ipl_good::22                     2632      1.59%     50.83% # number of times we switched to this ipl from a different ipl
system.cpu.kern.ipl_good::31                    81548     49.17%    100.00% # number of times we switched to this ipl from a different ipl
system.cpu.kern.ipl_good::total                165845                       # number of times we switched to this ipl from a different ipl
system.cpu.kern.ipl_ticks::0             2488176225000     94.23%     94.23% # number of cycles we spent at this ipl
system.cpu.kern.ipl_ticks::21               234238500      0.01%     94.24% # number of cycles we spent at this ipl
system.cpu.kern.ipl_ticks::22              1718106500      0.07%     94.31% # number of cycles we spent at this ipl
system.cpu.kern.ipl_ticks::31            150300892500      5.69%    100.00% # number of cycles we spent at this ipl
system.cpu.kern.ipl_ticks::total         2640429462500                       # number of cycles we spent at this ipl
system.cpu.kern.ipl_used::0                  0.981501                       # fraction of swpipl calls that actually changed the ipl
system.cpu.kern.ipl_used::21                        1                       # fraction of swpipl calls that actually changed the ipl
system.cpu.kern.ipl_used::22                        1                       # fraction of swpipl calls that actually changed the ipl
system.cpu.kern.ipl_used::31                 0.667573                       # fraction of swpipl calls that actually changed the ipl
system.cpu.kern.ipl_used::total              0.797370                       # fraction of swpipl calls that actually changed the ipl
system.cpu.committedInsts                    97466267                       # Number of instructions committed
system.cpu.committedOps                      97466267                       # Number of ops (including micro ops) committed
system.cpu.num_int_alu_accesses              94458552                       # Number of integer alu accesses
system.cpu.num_fp_alu_accesses                 424241                       # Number of float alu accesses
system.cpu.num_vec_alu_accesses                     0                       # Number of vector alu accesses
system.cpu.num_func_calls                     2921068                       # number of times a function call or return occured
system.cpu.num_conditional_control_insts     12573460                       # number of instructions that are conditional controls
system.cpu.num_int_insts                     94458552                       # number of integer instructions
system.cpu.num_fp_insts                        424241                       # number of float instructions
system.cpu.num_vec_insts                            0                       # number of vector instructions
system.cpu.num_int_register_reads           129794258                       # number of times the integer registers were read
system.cpu.num_int_register_writes           71784999                       # number of times the integer registers were written
system.cpu.num_fp_register_reads               176762                       # number of times the floating registers were read
system.cpu.num_fp_register_writes              179725                       # number of times the floating registers were written
system.cpu.num_vec_register_reads                   0                       # number of times the vector registers were read
system.cpu.num_vec_register_writes                  0                       # number of times the vector registers were written
system.cpu.num_mem_refs                      25967689                       # number of memory refs
system.cpu.num_load_insts                    17054612                       # Number of load instructions
system.cpu.num_store_insts                    8913077                       # Number of store instructions
system.cpu.num_idle_cycles               4392032592.998337                       # Number of idle cycles
system.cpu.num_busy_cycles               888830638.001663                       # Number of busy cycles
system.cpu.not_idle_fraction                 0.168312                       # Percentage of non-idle cycles
system.cpu.idle_fraction                     0.831688                       # Percentage of idle cycles
system.cpu.Branches                          16111345                       # Number of branches fetched
system.cpu.op_class::No_OpClass               1595265      1.64%      1.64% # Class of executed instruction
system.cpu.op_class::IntAlu                  67985229     69.74%     71.38% # Class of executed instruction
system.cpu.op_class::IntMult                   187069      0.19%     71.57% # Class of executed instruction
system.cpu.op_class::IntDiv                         0      0.00%     71.57% # Class of executed instruction
system.cpu.op_class::FloatAdd                  117360      0.12%     71.69% # Class of executed instruction
system.cpu.op_class::FloatCmp                       0      0.00%     71.69% # Class of executed instruction
system.cpu.op_class::FloatCvt                       0      0.00%     71.69% # Class of executed instruction
system.cpu.op_class::FloatMult                      0      0.00%     71.69% # Class of executed instruction
system.cpu.op_class::FloatMultAcc                   0      0.00%     71.69% # Class of executed instruction
system.cpu.op_class::FloatDiv                    4179      0.00%     71.70% # Class of executed instruction
system.cpu.op_class::FloatMisc                      0      0.00%     71.70% # Class of executed instruction
system.cpu.op_class::FloatSqrt                      0      0.00%     71.70% # Class of executed instruction
system.cpu.op_class::SimdAdd                        0      0.00%     71.70% # Class of executed instruction
system.cpu.op_class::SimdAddAcc                     0      0.00%     71.70% # Class of executed instruction
system.cpu.op_class::SimdAlu                        0      0.00%     71.70% # Class of executed instruction
system.cpu.op_class::SimdCmp                        0      0.00%     71.70% # Class of executed instruction
system.cpu.op_class::SimdCvt                        0      0.00%     71.70% # Class of executed instruction
system.cpu.op_class::SimdMisc                       0      0.00%     71.70% # Class of executed instruction
system.cpu.op_class::SimdMult                       0      0.00%     71.70% # Class of executed instruction
system.cpu.op_class::SimdMultAcc                    0      0.00%     71.70% # Class of executed instruction
system.cpu.op_class::SimdShift                      0      0.00%     71.70% # Class of executed instruction
system.cpu.op_class::SimdShiftAcc                   0      0.00%     71.70% # Class of executed instruction
system.cpu.op_class::SimdSqrt                       0      0.00%     71.70% # Class of executed instruction
system.cpu.op_class::SimdFloatAdd                   0      0.00%     71.70% # Class of executed instruction
system.cpu.op_class::SimdFloatAlu                   0      0.00%     71.70% # Class of executed instruction
system.cpu.op_class::SimdFloatCmp                   0      0.00%     71.70% # Class of executed instruction
system.cpu.op_class::SimdFloatCvt                   0      0.00%     71.70% # Class of executed instruction
system.cpu.op_class::SimdFloatDiv                   0      0.00%     71.70% # Class of executed instruction
system.cpu.op_class::SimdFloatMisc                  0      0.00%     71.70% # Class of executed instruction
system.cpu.op_class::SimdFloatMult                  0      0.00%     71.70% # Class of executed instruction
system.cpu.op_class::SimdFloatMultAcc               0      0.00%     71.70% # Class of executed instruction
system.cpu.op_class::SimdFloatSqrt                  0      0.00%     71.70% # Class of executed instruction
system.cpu.op_class::MemRead                 17357461     17.81%     89.50% # Class of executed instruction
system.cpu.op_class::MemWrite                 8839773      9.07%     98.57% # Class of executed instruction
system.cpu.op_class::FloatMemRead              154926      0.16%     98.73% # Class of executed instruction
system.cpu.op_class::FloatMemWrite             147776      0.15%     98.88% # Class of executed instruction
system.cpu.op_class::IprAccess                1091237      1.12%    100.00% # Class of executed instruction
system.cpu.op_class::InstPrefetch                   0      0.00%    100.00% # Class of executed instruction
system.cpu.op_class::total                   97480275                       # Class of executed instruction
system.cpu.dcache.tags.pwrStateResidencyTicks::UNDEFINED 2640431615500                       # Cumulative time (in ticks) in various power states
system.cpu.dcache.tags.replacements           2815666                       # number of replacements
system.cpu.dcache.tags.tagsinuse           127.996956                       # Cycle average of tags in use
system.cpu.dcache.tags.total_refs            23105815                       # Total number of references to valid blocks.
system.cpu.dcache.tags.sampled_refs           2815666                       # Sample count of references to valid blocks.
system.cpu.dcache.tags.avg_refs              8.206163                       # Average number of references to valid blocks.
system.cpu.dcache.tags.warmup_cycle          79751500                       # Cycle when the warmup percentage was hit.
system.cpu.dcache.tags.occ_blocks::cpu.data   127.996956                       # Average occupied blocks per requestor
system.cpu.dcache.tags.occ_percent::cpu.data     0.999976                       # Average percentage of cache occupancy
system.cpu.dcache.tags.occ_percent::total     0.999976                       # Average percentage of cache occupancy
system.cpu.dcache.tags.occ_task_id_blocks::1024          128                       # Occupied blocks per task id
system.cpu.dcache.tags.age_task_id_blocks_1024::0           34                       # Occupied blocks per task id
system.cpu.dcache.tags.age_task_id_blocks_1024::1           80                       # Occupied blocks per task id
system.cpu.dcache.tags.age_task_id_blocks_1024::2           14                       # Occupied blocks per task id
system.cpu.dcache.tags.occ_task_id_percent::1024            1                       # Percentage of cache occupancy per task id
system.cpu.dcache.tags.tag_accesses         832577682                       # Number of tag accesses
system.cpu.dcache.tags.data_accesses        832577682                       # Number of data accesses
system.cpu.dcache.pwrStateResidencyTicks::UNDEFINED 2640431615500                       # Cumulative time (in ticks) in various power states
system.cpu.dcache.ReadReq_hits::cpu.data     14211954                       # number of ReadReq hits
system.cpu.dcache.ReadReq_hits::total        14211954                       # number of ReadReq hits
system.cpu.dcache.WriteReq_hits::cpu.data      8306939                       # number of WriteReq hits
system.cpu.dcache.WriteReq_hits::total        8306939                       # number of WriteReq hits
system.cpu.dcache.LoadLockedReq_hits::cpu.data       279396                       # number of LoadLockedReq hits
system.cpu.dcache.LoadLockedReq_hits::total       279396                       # number of LoadLockedReq hits
system.cpu.dcache.StoreCondReq_hits::cpu.data       315967                       # number of StoreCondReq hits
system.cpu.dcache.StoreCondReq_hits::total       315967                       # number of StoreCondReq hits
system.cpu.dcache.demand_hits::cpu.data      22518893                       # number of demand (read+write) hits
system.cpu.dcache.demand_hits::total         22518893                       # number of demand (read+write) hits
system.cpu.dcache.overall_hits::cpu.data     22518893                       # number of overall hits
system.cpu.dcache.overall_hits::total        22518893                       # number of overall hits
system.cpu.dcache.ReadReq_misses::cpu.data      2506121                       # number of ReadReq misses
system.cpu.dcache.ReadReq_misses::total       2506121                       # number of ReadReq misses
system.cpu.dcache.WriteReq_misses::cpu.data       272046                       # number of WriteReq misses
system.cpu.dcache.WriteReq_misses::total       272046                       # number of WriteReq misses
system.cpu.dcache.LoadLockedReq_misses::cpu.data        37636                       # number of LoadLockedReq misses
system.cpu.dcache.LoadLockedReq_misses::total        37636                       # number of LoadLockedReq misses
system.cpu.dcache.demand_misses::cpu.data      2778167                       # number of demand (read+write) misses
system.cpu.dcache.demand_misses::total        2778167                       # number of demand (read+write) misses
system.cpu.dcache.overall_misses::cpu.data      2778167                       # number of overall misses
system.cpu.dcache.overall_misses::total       2778167                       # number of overall misses
system.cpu.dcache.ReadReq_miss_latency::cpu.data 204067750500                       # number of ReadReq miss cycles
system.cpu.dcache.ReadReq_miss_latency::total 204067750500                       # number of ReadReq miss cycles
system.cpu.dcache.WriteReq_miss_latency::cpu.data  22663616500                       # number of WriteReq miss cycles
system.cpu.dcache.WriteReq_miss_latency::total  22663616500                       # number of WriteReq miss cycles
system.cpu.dcache.LoadLockedReq_miss_latency::cpu.data   2583375000                       # number of LoadLockedReq miss cycles
system.cpu.dcache.LoadLockedReq_miss_latency::total   2583375000                       # number of LoadLockedReq miss cycles
system.cpu.dcache.demand_miss_latency::cpu.data 226731367000                       # number of demand (read+write) miss cycles
system.cpu.dcache.demand_miss_latency::total 226731367000                       # number of demand (read+write) miss cycles
system.cpu.dcache.overall_miss_latency::cpu.data 226731367000                       # number of overall miss cycles
system.cpu.dcache.overall_miss_latency::total 226731367000                       # number of overall miss cycles
system.cpu.dcache.ReadReq_accesses::cpu.data     16718075                       # number of ReadReq accesses(hits+misses)
system.cpu.dcache.ReadReq_accesses::total     16718075                       # number of ReadReq accesses(hits+misses)
system.cpu.dcache.WriteReq_accesses::cpu.data      8578985                       # number of WriteReq accesses(hits+misses)
system.cpu.dcache.WriteReq_accesses::total      8578985                       # number of WriteReq accesses(hits+misses)
system.cpu.dcache.LoadLockedReq_accesses::cpu.data       317032                       # number of LoadLockedReq accesses(hits+misses)
system.cpu.dcache.LoadLockedReq_accesses::total       317032                       # number of LoadLockedReq accesses(hits+misses)
system.cpu.dcache.StoreCondReq_accesses::cpu.data       315967                       # number of StoreCondReq accesses(hits+misses)
system.cpu.dcache.StoreCondReq_accesses::total       315967                       # number of StoreCondReq accesses(hits+misses)
system.cpu.dcache.demand_accesses::cpu.data     25297060                       # number of demand (read+write) accesses
system.cpu.dcache.demand_accesses::total     25297060                       # number of demand (read+write) accesses
system.cpu.dcache.overall_accesses::cpu.data     25297060                       # number of overall (read+write) accesses
system.cpu.dcache.overall_accesses::total     25297060                       # number of overall (read+write) accesses
system.cpu.dcache.ReadReq_miss_rate::cpu.data     0.149905                       # miss rate for ReadReq accesses
system.cpu.dcache.ReadReq_miss_rate::total     0.149905                       # miss rate for ReadReq accesses
system.cpu.dcache.WriteReq_miss_rate::cpu.data     0.031711                       # miss rate for WriteReq accesses
system.cpu.dcache.WriteReq_miss_rate::total     0.031711                       # miss rate for WriteReq accesses
system.cpu.dcache.LoadLockedReq_miss_rate::cpu.data     0.118714                       # miss rate for LoadLockedReq accesses
system.cpu.dcache.LoadLockedReq_miss_rate::total     0.118714                       # miss rate for LoadLockedReq accesses
system.cpu.dcache.demand_miss_rate::cpu.data     0.109822                       # miss rate for demand accesses
system.cpu.dcache.demand_miss_rate::total     0.109822                       # miss rate for demand accesses
system.cpu.dcache.overall_miss_rate::cpu.data     0.109822                       # miss rate for overall accesses
system.cpu.dcache.overall_miss_rate::total     0.109822                       # miss rate for overall accesses
system.cpu.dcache.ReadReq_avg_miss_latency::cpu.data 81427.732540                       # average ReadReq miss latency
system.cpu.dcache.ReadReq_avg_miss_latency::total 81427.732540                       # average ReadReq miss latency
system.cpu.dcache.WriteReq_avg_miss_latency::cpu.data 83308.030627                       # average WriteReq miss latency
system.cpu.dcache.WriteReq_avg_miss_latency::total 83308.030627                       # average WriteReq miss latency
system.cpu.dcache.LoadLockedReq_avg_miss_latency::cpu.data 68641.061749                       # average LoadLockedReq miss latency
system.cpu.dcache.LoadLockedReq_avg_miss_latency::total 68641.061749                       # average LoadLockedReq miss latency
system.cpu.dcache.demand_avg_miss_latency::cpu.data 81611.856667                       # average overall miss latency
system.cpu.dcache.demand_avg_miss_latency::total 81611.856667                       # average overall miss latency
system.cpu.dcache.overall_avg_miss_latency::cpu.data 81611.856667                       # average overall miss latency
system.cpu.dcache.overall_avg_miss_latency::total 81611.856667                       # average overall miss latency
system.cpu.dcache.blocked_cycles::no_mshrs            0                       # number of cycles access was blocked
system.cpu.dcache.blocked_cycles::no_targets            0                       # number of cycles access was blocked
system.cpu.dcache.blocked::no_mshrs                 0                       # number of cycles access was blocked
system.cpu.dcache.blocked::no_targets               0                       # number of cycles access was blocked
system.cpu.dcache.avg_blocked_cycles::no_mshrs          nan                       # average number of cycles each access was blocked
system.cpu.dcache.avg_blocked_cycles::no_targets          nan                       # average number of cycles each access was blocked
system.cpu.dcache.writebacks::writebacks       548705                       # number of writebacks
system.cpu.dcache.writebacks::total            548705                       # number of writebacks
system.cpu.dcache.ReadReq_mshr_misses::cpu.data      2506121                       # number of ReadReq MSHR misses
system.cpu.dcache.ReadReq_mshr_misses::total      2506121                       # number of ReadReq MSHR misses
system.cpu.dcache.WriteReq_mshr_misses::cpu.data       272046                       # number of WriteReq MSHR misses
system.cpu.dcache.WriteReq_mshr_misses::total       272046                       # number of WriteReq MSHR misses
system.cpu.dcache.LoadLockedReq_mshr_misses::cpu.data        37636                       # number of LoadLockedReq MSHR misses
system.cpu.dcache.LoadLockedReq_mshr_misses::total        37636                       # number of LoadLockedReq MSHR misses
system.cpu.dcache.demand_mshr_misses::cpu.data      2778167                       # number of demand (read+write) MSHR misses
system.cpu.dcache.demand_mshr_misses::total      2778167                       # number of demand (read+write) MSHR misses
system.cpu.dcache.overall_mshr_misses::cpu.data      2778167                       # number of overall MSHR misses
system.cpu.dcache.overall_mshr_misses::total      2778167                       # number of overall MSHR misses
system.cpu.dcache.ReadReq_mshr_uncacheable::cpu.data         6973                       # number of ReadReq MSHR uncacheable
system.cpu.dcache.ReadReq_mshr_uncacheable::total         6973                       # number of ReadReq MSHR uncacheable
system.cpu.dcache.WriteReq_mshr_uncacheable::cpu.data        10410                       # number of WriteReq MSHR uncacheable
system.cpu.dcache.WriteReq_mshr_uncacheable::total        10410                       # number of WriteReq MSHR uncacheable
system.cpu.dcache.overall_mshr_uncacheable_misses::cpu.data        17383                       # number of overall MSHR uncacheable misses
system.cpu.dcache.overall_mshr_uncacheable_misses::total        17383                       # number of overall MSHR uncacheable misses
system.cpu.dcache.ReadReq_mshr_miss_latency::cpu.data 201561629500                       # number of ReadReq MSHR miss cycles
system.cpu.dcache.ReadReq_mshr_miss_latency::total 201561629500                       # number of ReadReq MSHR miss cycles
system.cpu.dcache.WriteReq_mshr_miss_latency::cpu.data  22391570500                       # number of WriteReq MSHR miss cycles
system.cpu.dcache.WriteReq_mshr_miss_latency::total  22391570500                       # number of WriteReq MSHR miss cycles
system.cpu.dcache.LoadLockedReq_mshr_miss_latency::cpu.data   2545739000                       # number of LoadLockedReq MSHR miss cycles
system.cpu.dcache.LoadLockedReq_mshr_miss_latency::total   2545739000                       # number of LoadLockedReq MSHR miss cycles
system.cpu.dcache.demand_mshr_miss_latency::cpu.data 223953200000                       # number of demand (read+write) MSHR miss cycles
system.cpu.dcache.demand_mshr_miss_latency::total 223953200000                       # number of demand (read+write) MSHR miss cycles
system.cpu.dcache.overall_mshr_miss_latency::cpu.data 223953200000                       # number of overall MSHR miss cycles
system.cpu.dcache.overall_mshr_miss_latency::total 223953200000                       # number of overall MSHR miss cycles
system.cpu.dcache.ReadReq_mshr_uncacheable_latency::cpu.data   1561253000                       # number of ReadReq MSHR uncacheable cycles
system.cpu.dcache.ReadReq_mshr_uncacheable_latency::total   1561253000                       # number of ReadReq MSHR uncacheable cycles
system.cpu.dcache.overall_mshr_uncacheable_latency::cpu.data   1561253000                       # number of overall MSHR uncacheable cycles
system.cpu.dcache.overall_mshr_uncacheable_latency::total   1561253000                       # number of overall MSHR uncacheable cycles
system.cpu.dcache.ReadReq_mshr_miss_rate::cpu.data     0.149905                       # mshr miss rate for ReadReq accesses
system.cpu.dcache.ReadReq_mshr_miss_rate::total     0.149905                       # mshr miss rate for ReadReq accesses
system.cpu.dcache.WriteReq_mshr_miss_rate::cpu.data     0.031711                       # mshr miss rate for WriteReq accesses
system.cpu.dcache.WriteReq_mshr_miss_rate::total     0.031711                       # mshr miss rate for WriteReq accesses
system.cpu.dcache.LoadLockedReq_mshr_miss_rate::cpu.data     0.118714                       # mshr miss rate for LoadLockedReq accesses
system.cpu.dcache.LoadLockedReq_mshr_miss_rate::total     0.118714                       # mshr miss rate for LoadLockedReq accesses
system.cpu.dcache.demand_mshr_miss_rate::cpu.data     0.109822                       # mshr miss rate for demand accesses
system.cpu.dcache.demand_mshr_miss_rate::total     0.109822                       # mshr miss rate for demand accesses
system.cpu.dcache.overall_mshr_miss_rate::cpu.data     0.109822                       # mshr miss rate for overall accesses
system.cpu.dcache.overall_mshr_miss_rate::total     0.109822                       # mshr miss rate for overall accesses
system.cpu.dcache.ReadReq_avg_mshr_miss_latency::cpu.data 80427.732540                       # average ReadReq mshr miss latency
system.cpu.dcache.ReadReq_avg_mshr_miss_latency::total 80427.732540                       # average ReadReq mshr miss latency
system.cpu.dcache.WriteReq_avg_mshr_miss_latency::cpu.data 82308.030627                       # average WriteReq mshr miss latency
system.cpu.dcache.WriteReq_avg_mshr_miss_latency::total 82308.030627                       # average WriteReq mshr miss latency
system.cpu.dcache.LoadLockedReq_avg_mshr_miss_latency::cpu.data 67641.061749                       # average LoadLockedReq mshr miss latency
system.cpu.dcache.LoadLockedReq_avg_mshr_miss_latency::total 67641.061749                       # average LoadLockedReq mshr miss latency
system.cpu.dcache.demand_avg_mshr_miss_latency::cpu.data 80611.856667                       # average overall mshr miss latency
system.cpu.dcache.demand_avg_mshr_miss_latency::total 80611.856667                       # average overall mshr miss latency
system.cpu.dcache.overall_avg_mshr_miss_latency::cpu.data 80611.856667                       # average overall mshr miss latency
system.cpu.dcache.overall_avg_mshr_miss_latency::total 80611.856667                       # average overall mshr miss latency
system.cpu.dcache.ReadReq_avg_mshr_uncacheable_latency::cpu.data 223899.756202                       # average ReadReq mshr uncacheable latency
system.cpu.dcache.ReadReq_avg_mshr_uncacheable_latency::total 223899.756202                       # average ReadReq mshr uncacheable latency
system.cpu.dcache.overall_avg_mshr_uncacheable_latency::cpu.data 89814.934131                       # average overall mshr uncacheable latency
system.cpu.dcache.overall_avg_mshr_uncacheable_latency::total 89814.934131                       # average overall mshr uncacheable latency
system.cpu.icache.tags.pwrStateResidencyTicks::UNDEFINED 2640431615500                       # Cumulative time (in ticks) in various power states
system.cpu.icache.tags.replacements           1648137                       # number of replacements
system.cpu.icache.tags.tagsinuse            63.996189                       # Cycle average of tags in use
system.cpu.icache.tags.total_refs            95829291                       # Total number of references to valid blocks.
system.cpu.icache.tags.sampled_refs           1648137                       # Sample count of references to valid blocks.
system.cpu.icache.tags.avg_refs             58.144008                       # Average number of references to valid blocks.
system.cpu.icache.tags.warmup_cycle         883671500                       # Cycle when the warmup percentage was hit.
system.cpu.icache.tags.occ_blocks::cpu.inst    63.996189                       # Average occupied blocks per requestor
system.cpu.icache.tags.occ_percent::cpu.inst     0.999940                       # Average percentage of cache occupancy
system.cpu.icache.tags.occ_percent::total     0.999940                       # Average percentage of cache occupancy
system.cpu.icache.tags.occ_task_id_blocks::1024           64                       # Occupied blocks per task id
system.cpu.icache.tags.age_task_id_blocks_1024::0           47                       # Occupied blocks per task id
system.cpu.icache.tags.age_task_id_blocks_1024::1           16                       # Occupied blocks per task id
system.cpu.icache.tags.age_task_id_blocks_1024::2            1                       # Occupied blocks per task id
system.cpu.icache.tags.occ_task_id_percent::1024            1                       # Percentage of cache occupancy per task id
system.cpu.icache.tags.tag_accesses         196608917                       # Number of tag accesses
system.cpu.icache.tags.data_accesses        196608917                       # Number of data accesses
system.cpu.icache.pwrStateResidencyTicks::UNDEFINED 2640431615500                       # Cumulative time (in ticks) in various power states
system.cpu.icache.ReadReq_hits::cpu.inst     95831911                       # number of ReadReq hits
system.cpu.icache.ReadReq_hits::total        95831911                       # number of ReadReq hits
system.cpu.icache.demand_hits::cpu.inst      95831911                       # number of demand (read+write) hits
system.cpu.icache.demand_hits::total         95831911                       # number of demand (read+write) hits
system.cpu.icache.overall_hits::cpu.inst     95831911                       # number of overall hits
system.cpu.icache.overall_hits::total        95831911                       # number of overall hits
system.cpu.icache.ReadReq_misses::cpu.inst      1648365                       # number of ReadReq misses
system.cpu.icache.ReadReq_misses::total       1648365                       # number of ReadReq misses
system.cpu.icache.demand_misses::cpu.inst      1648365                       # number of demand (read+write) misses
system.cpu.icache.demand_misses::total        1648365                       # number of demand (read+write) misses
system.cpu.icache.overall_misses::cpu.inst      1648365                       # number of overall misses
system.cpu.icache.overall_misses::total       1648365                       # number of overall misses
system.cpu.icache.ReadReq_miss_latency::cpu.inst  90113207000                       # number of ReadReq miss cycles
system.cpu.icache.ReadReq_miss_latency::total  90113207000                       # number of ReadReq miss cycles
system.cpu.icache.demand_miss_latency::cpu.inst  90113207000                       # number of demand (read+write) miss cycles
system.cpu.icache.demand_miss_latency::total  90113207000                       # number of demand (read+write) miss cycles
system.cpu.icache.overall_miss_latency::cpu.inst  90113207000                       # number of overall miss cycles
system.cpu.icache.overall_miss_latency::total  90113207000                       # number of overall miss cycles
system.cpu.icache.ReadReq_accesses::cpu.inst     97480276                       # number of ReadReq accesses(hits+misses)
system.cpu.icache.ReadReq_accesses::total     97480276                       # number of ReadReq accesses(hits+misses)
system.cpu.icache.demand_accesses::cpu.inst     97480276                       # number of demand (read+write) accesses
system.cpu.icache.demand_accesses::total     97480276                       # number of demand (read+write) accesses
system.cpu.icache.overall_accesses::cpu.inst     97480276                       # number of overall (read+write) accesses
system.cpu.icache.overall_accesses::total     97480276                       # number of overall (read+write) accesses
system.cpu.icache.ReadReq_miss_rate::cpu.inst     0.016910                       # miss rate for ReadReq accesses
system.cpu.icache.ReadReq_miss_rate::total     0.016910                       # miss rate for ReadReq accesses
system.cpu.icache.demand_miss_rate::cpu.inst     0.016910                       # miss rate for demand accesses
system.cpu.icache.demand_miss_rate::total     0.016910                       # miss rate for demand accesses
system.cpu.icache.overall_miss_rate::cpu.inst     0.016910                       # miss rate for overall accesses
system.cpu.icache.overall_miss_rate::total     0.016910                       # miss rate for overall accesses
system.cpu.icache.ReadReq_avg_miss_latency::cpu.inst 54668.236101                       # average ReadReq miss latency
system.cpu.icache.ReadReq_avg_miss_latency::total 54668.236101                       # average ReadReq miss latency
system.cpu.icache.demand_avg_miss_latency::cpu.inst 54668.236101                       # average overall miss latency
system.cpu.icache.demand_avg_miss_latency::total 54668.236101                       # average overall miss latency
system.cpu.icache.overall_avg_miss_latency::cpu.inst 54668.236101                       # average overall miss latency
system.cpu.icache.overall_avg_miss_latency::total 54668.236101                       # average overall miss latency
system.cpu.icache.blocked_cycles::no_mshrs            0                       # number of cycles access was blocked
system.cpu.icache.blocked_cycles::no_targets            0                       # number of cycles access was blocked
system.cpu.icache.blocked::no_mshrs                 0                       # number of cycles access was blocked
system.cpu.icache.blocked::no_targets               0                       # number of cycles access was blocked
system.cpu.icache.avg_blocked_cycles::no_mshrs          nan                       # average number of cycles each access was blocked
system.cpu.icache.avg_blocked_cycles::no_targets          nan                       # average number of cycles each access was blocked
system.cpu.icache.writebacks::writebacks      1648137                       # number of writebacks
system.cpu.icache.writebacks::total           1648137                       # number of writebacks
system.cpu.icache.ReadReq_mshr_misses::cpu.inst      1648365                       # number of ReadReq MSHR misses
system.cpu.icache.ReadReq_mshr_misses::total      1648365                       # number of ReadReq MSHR misses
system.cpu.icache.demand_mshr_misses::cpu.inst      1648365                       # number of demand (read+write) MSHR misses
system.cpu.icache.demand_mshr_misses::total      1648365                       # number of demand (read+write) MSHR misses
system.cpu.icache.overall_mshr_misses::cpu.inst      1648365                       # number of overall MSHR misses
system.cpu.icache.overall_mshr_misses::total      1648365                       # number of overall MSHR misses
system.cpu.icache.ReadReq_mshr_miss_latency::cpu.inst  88464842000                       # number of ReadReq MSHR miss cycles
system.cpu.icache.ReadReq_mshr_miss_latency::total  88464842000                       # number of ReadReq MSHR miss cycles
system.cpu.icache.demand_mshr_miss_latency::cpu.inst  88464842000                       # number of demand (read+write) MSHR miss cycles
system.cpu.icache.demand_mshr_miss_latency::total  88464842000                       # number of demand (read+write) MSHR miss cycles
system.cpu.icache.overall_mshr_miss_latency::cpu.inst  88464842000                       # number of overall MSHR miss cycles
system.cpu.icache.overall_mshr_miss_latency::total  88464842000                       # number of overall MSHR miss cycles
system.cpu.icache.ReadReq_mshr_miss_rate::cpu.inst     0.016910                       # mshr miss rate for ReadReq accesses
[...]
system.l2.ReadReq_avg_mshr_uncacheable_latency::total 211527.049180                       # average ReadReq mshr uncacheable latency
system.l2.overall_avg_mshr_uncacheable_latency::cpu.data 120141.061453                       # average overall mshr uncacheable latency
system.l2.overall_avg_mshr_uncacheable_latency::total 120141.061453                       # average overall mshr uncacheable latency
system.membus.snoop_filter.tot_requests         92842                       # Total number of requests made to the snoop filter.
system.membus.snoop_filter.hit_single_requests        47205                       # Number of requests hitting in the snoop filter with a single holder of the requested data.
system.membus.snoop_filter.hit_multi_requests           27                       # Number of requests hitting in the snoop filter with multiple (>1) holders of the requested data.
system.membus.snoop_filter.tot_snoops               0                       # Total number of snoops made to the snoop filter.
system.membus.snoop_filter.hit_single_snoops            0                       # Number of snoops hitting in the snoop filter with a single holder of the requested data.
system.membus.snoop_filter.hit_multi_snoops            0                       # Number of snoops hitting in the snoop filter with multiple (>1) holders of the requested data.
system.membus.pwrStateResidencyTicks::UNDEFINED   6932799000                       # Cumulative time (in ticks) in various power states
system.membus.trans_dist::ReadReq                 610                       # Transaction distribution
system.membus.trans_dist::ReadResp              33191                       # Transaction distribution
system.membus.trans_dist::WriteReq                464                       # Transaction distribution
system.membus.trans_dist::WriteResp               464                       # Transaction distribution
system.membus.trans_dist::WritebackDirty        16082                       # Transaction distribution
system.membus.trans_dist::CleanEvict            29557                       # Transaction distribution
system.membus.trans_dist::ReadExReq              7396                       # Transaction distribution
system.membus.trans_dist::ReadExResp             7396                       # Transaction distribution
system.membus.trans_dist::ReadSharedReq         32581                       # Transaction distribution
system.membus.trans_dist::InvalidateReq          5664                       # Transaction distribution
system.membus.pkt_count_system.iocache.mem_side::system.mem_ctrls.port        11382                       # Packet count per connected master and slave (bytes)
system.membus.pkt_count_system.iocache.mem_side::total        11382                       # Packet count per connected master and slave (bytes)
system.membus.pkt_count_system.l2.mem_side::system.bridge.slave         2148                       # Packet count per connected master and slave (bytes)
system.membus.pkt_count_system.l2.mem_side::system.mem_ctrls.port       119848                       # Packet count per connected master and slave (bytes)
system.membus.pkt_count_system.l2.mem_side::total       121996                       # Packet count per connected master and slave (bytes)
system.membus.pkt_count::total                 133378                       # Packet count per connected master and slave (bytes)
system.membus.pkt_size_system.iocache.mem_side::system.mem_ctrls.port       724992                       # Cumulative packet size per connected master and slave (bytes)
system.membus.pkt_size_system.iocache.mem_side::total       724992                       # Cumulative packet size per connected master and slave (bytes)
system.membus.pkt_size_system.l2.mem_side::system.bridge.slave         1735                       # Cumulative packet size per connected master and slave (bytes)
system.membus.pkt_size_system.l2.mem_side::system.mem_ctrls.port      6447104                       # Cumulative packet size per connected master and slave (bytes)
system.membus.pkt_size_system.l2.mem_side::total      6448839                       # Cumulative packet size per connected master and slave (bytes)
system.membus.pkt_size::total                 7173831                       # Cumulative packet size per connected master and slave (bytes)
system.membus.snoops                               27                       # Total snoops (count)
system.membus.snoopTraffic                       3456                       # Total snoop traffic (bytes)
system.membus.snoop_fanout::samples             46715                       # Request fanout histogram
system.membus.snoop_fanout::mean             0.000578                       # Request fanout histogram
system.membus.snoop_fanout::stdev            0.024034                       # Request fanout histogram
system.membus.snoop_fanout::underflows              0      0.00%      0.00% # Request fanout histogram
system.membus.snoop_fanout::0                   46688     99.94%     99.94% # Request fanout histogram
system.membus.snoop_fanout::1                      27      0.06%    100.00% # Request fanout histogram
system.membus.snoop_fanout::2                       0      0.00%    100.00% # Request fanout histogram
system.membus.snoop_fanout::overflows               0      0.00%    100.00% # Request fanout histogram
system.membus.snoop_fanout::min_value               0                       # Request fanout histogram
system.membus.snoop_fanout::max_value               1                       # Request fanout histogram
system.membus.snoop_fanout::total               46715                       # Request fanout histogram
system.membus.reqLayer0.occupancy             1783500                       # Layer occupancy (ticks)
system.membus.reqLayer0.utilization               0.0                       # Layer utilization (%)
system.membus.reqLayer1.occupancy           223459181                       # Layer occupancy (ticks)
system.membus.reqLayer1.utilization               3.2                       # Layer utilization (%)
system.membus.respLayer1.occupancy             256515                       # Layer occupancy (ticks)
system.membus.respLayer1.utilization              0.0                       # Layer utilization (%)
system.membus.respLayer2.occupancy          377543250                       # Layer occupancy (ticks)
system.membus.respLayer2.utilization              5.4                       # Layer utilization (%)
system.membus.badaddr_responder.pwrStateResidencyTicks::UNDEFINED   6932799000                       # Cumulative time (in ticks) in various power states
system.tol2bus.snoop_filter.tot_requests       142792                       # Total number of requests made to the snoop filter.
system.tol2bus.snoop_filter.hit_single_requests        71401                       # Number of requests hitting in the snoop filter with a single holder of the requested data.
system.tol2bus.snoop_filter.hit_multi_requests          292                       # Number of requests hitting in the snoop filter with multiple (>1) holders of the requested data.
system.tol2bus.snoop_filter.tot_snoops           4675                       # Total number of snoops made to the snoop filter.
system.tol2bus.snoop_filter.hit_single_snoops         4652                       # Number of snoops hitting in the snoop filter with a single holder of the requested data.
system.tol2bus.snoop_filter.hit_multi_snoops           23                       # Number of snoops hitting in the snoop filter with multiple (>1) holders of the requested data.
system.tol2bus.pwrStateResidencyTicks::UNDEFINED   6932799000                       # Cumulative time (in ticks) in various power states
system.tol2bus.trans_dist::ReadReq                610                       # Transaction distribution
system.tol2bus.trans_dist::ReadResp             63770                       # Transaction distribution
system.tol2bus.trans_dist::WriteReq               464                       # Transaction distribution
system.tol2bus.trans_dist::WriteResp              464                       # Transaction distribution
system.tol2bus.trans_dist::WritebackDirty        24680                       # Transaction distribution
system.tol2bus.trans_dist::WritebackClean        40941                       # Transaction distribution
system.tol2bus.trans_dist::CleanEvict           48237                       # Transaction distribution
system.tol2bus.trans_dist::UpgradeReq               1                       # Transaction distribution
system.tol2bus.trans_dist::UpgradeResp              1                       # Transaction distribution
system.tol2bus.trans_dist::ReadExReq             8264                       # Transaction distribution
system.tol2bus.trans_dist::ReadExResp            8264                       # Transaction distribution
system.tol2bus.trans_dist::ReadCleanReq         40944                       # Transaction distribution
system.tol2bus.trans_dist::ReadSharedReq        22216                       # Transaction distribution
system.tol2bus.pkt_count_system.cpu.icache.mem_side::system.l2.cpu_side       122829                       # Packet count per connected master and slave (bytes)
system.tol2bus.pkt_count_system.cpu.dcache.mem_side::system.l2.cpu_side        93536                       # Packet count per connected master and slave (bytes)
system.tol2bus.pkt_count::total                216365                       # Packet count per connected master and slave (bytes)
system.tol2bus.pkt_size_system.cpu.icache.mem_side::system.l2.cpu_side     10481280                       # Cumulative packet size per connected master and slave (bytes)
system.tol2bus.pkt_size_system.cpu.dcache.mem_side::system.l2.cpu_side      5728711                       # Cumulative packet size per connected master and slave (bytes)
system.tol2bus.pkt_size::total               16209991                       # Cumulative packet size per connected master and slave (bytes)
system.tol2bus.snoops                           42518                       # Total snoops (count)
system.tol2bus.snoopTraffic                   1336960                       # Total snoop traffic (bytes)
system.tol2bus.snoop_fanout::samples           114963                       # Request fanout histogram
system.tol2bus.snoop_fanout::mean            0.043414                       # Request fanout histogram
system.tol2bus.snoop_fanout::stdev           0.204767                       # Request fanout histogram
system.tol2bus.snoop_fanout::underflows             0      0.00%      0.00% # Request fanout histogram
system.tol2bus.snoop_fanout::0                 109995     95.68%     95.68% # Request fanout histogram
system.tol2bus.snoop_fanout::1                   4945      4.30%     99.98% # Request fanout histogram
system.tol2bus.snoop_fanout::2                     23      0.02%    100.00% # Request fanout histogram
system.tol2bus.snoop_fanout::overflows              0      0.00%    100.00% # Request fanout histogram
system.tol2bus.snoop_fanout::min_value              0                       # Request fanout histogram
system.tol2bus.snoop_fanout::max_value              2                       # Request fanout histogram
system.tol2bus.snoop_fanout::total             114963                       # Request fanout histogram
system.tol2bus.reqLayer0.occupancy          182571000                       # Layer occupancy (ticks)
system.tol2bus.reqLayer0.utilization              2.6                       # Layer utilization (%)
system.tol2bus.snoopLayer0.occupancy            74985                       # Layer occupancy (ticks)
system.tol2bus.snoopLayer0.utilization            0.0                       # Layer utilization (%)
system.tol2bus.respLayer0.occupancy         102360000                       # Layer occupancy (ticks)
system.tol2bus.respLayer0.utilization             1.5                       # Layer utilization (%)
system.tol2bus.respLayer1.occupancy          76975000                       # Layer occupancy (ticks)
system.tol2bus.respLayer1.utilization             1.1                       # Layer utilization (%)
system.tsunami.backdoor.pwrStateResidencyTicks::UNDEFINED   6932799000                       # Cumulative time (in ticks) in various power states
system.tsunami.cchip.pwrStateResidencyTicks::UNDEFINED   6932799000                       # Cumulative time (in ticks) in various power states
system.tsunami.pchip.pwrStateResidencyTicks::UNDEFINED   6932799000                       # Cumulative time (in ticks) in various power states
system.tsunami.ethernet.pwrStateResidencyTicks::UNDEFINED   6932799000                       # Cumulative time (in ticks) in various power states
system.tsunami.ethernet.descDMAReads                0                       # Number of descriptors the device read w/ DMA
system.tsunami.ethernet.descDMAWrites               0                       # Number of descriptors the device wrote w/ DMA
system.tsunami.ethernet.descDmaReadBytes            0                       # number of descriptor bytes read w/ DMA
system.tsunami.ethernet.descDmaWriteBytes            0                       # number of descriptor bytes write w/ DMA
system.tsunami.ethernet.postedSwi                   0                       # number of software interrupts posted to CPU
system.tsunami.ethernet.coalescedSwi              nan                       # average number of Swi's coalesced into each post
system.tsunami.ethernet.totalSwi                    0                       # total number of Swi written to ISR
system.tsunami.ethernet.postedRxIdle                0                       # number of rxIdle interrupts posted to CPU
system.tsunami.ethernet.coalescedRxIdle           nan                       # average number of RxIdle's coalesced into each post
system.tsunami.ethernet.totalRxIdle                 0                       # total number of RxIdle written to ISR
system.tsunami.ethernet.postedRxOk                  0                       # number of RxOk interrupts posted to CPU
system.tsunami.ethernet.coalescedRxOk             nan                       # average number of RxOk's coalesced into each post
system.tsunami.ethernet.totalRxOk                   0                       # total number of RxOk written to ISR
system.tsunami.ethernet.postedRxDesc                0                       # number of RxDesc interrupts posted to CPU
system.tsunami.ethernet.coalescedRxDesc           nan                       # average number of RxDesc's coalesced into each post
system.tsunami.ethernet.totalRxDesc                 0                       # total number of RxDesc written to ISR
system.tsunami.ethernet.postedTxOk                  0                       # number of TxOk interrupts posted to CPU
system.tsunami.ethernet.coalescedTxOk             nan                       # average number of TxOk's coalesced into each post
system.tsunami.ethernet.totalTxOk                   0                       # total number of TxOk written to ISR
system.tsunami.ethernet.postedTxIdle                0                       # number of TxIdle interrupts posted to CPU
system.tsunami.ethernet.coalescedTxIdle           nan                       # average number of TxIdle's coalesced into each post
system.tsunami.ethernet.totalTxIdle                 0                       # total number of TxIdle written to ISR
system.tsunami.ethernet.postedTxDesc                0                       # number of TxDesc interrupts posted to CPU
system.tsunami.ethernet.coalescedTxDesc           nan                       # average number of TxDesc's coalesced into each post
system.tsunami.ethernet.totalTxDesc                 0                       # total number of TxDesc written to ISR
system.tsunami.ethernet.postedRxOrn                 0                       # number of RxOrn posted to CPU
system.tsunami.ethernet.coalescedRxOrn            nan                       # average number of RxOrn's coalesced into each post
system.tsunami.ethernet.totalRxOrn                  0                       # total number of RxOrn written to ISR
system.tsunami.ethernet.coalescedTotal            nan                       # average number of interrupts coalesced into each post
system.tsunami.ethernet.postedInterrupts            0                       # number of posts to CPU
system.tsunami.ethernet.droppedPackets              0                       # number of packets dropped
system.tsunami.fake_OROM.pwrStateResidencyTicks::UNDEFINED   6932799000                       # Cumulative time (in ticks) in various power states
system.tsunami.fake_ata0.pwrStateResidencyTicks::UNDEFINED   6932799000                       # Cumulative time (in ticks) in various power states
system.tsunami.fake_ata1.pwrStateResidencyTicks::UNDEFINED   6932799000                       # Cumulative time (in ticks) in various power states
system.tsunami.fake_pnp_addr.pwrStateResidencyTicks::UNDEFINED   6932799000                       # Cumulative time (in ticks) in various power states
system.tsunami.fake_pnp_read0.pwrStateResidencyTicks::UNDEFINED   6932799000                       # Cumulative time (in ticks) in various power states
system.tsunami.fake_pnp_read1.pwrStateResidencyTicks::UNDEFINED   6932799000                       # Cumulative time (in ticks) in various power states
system.tsunami.fake_pnp_read2.pwrStateResidencyTicks::UNDEFINED   6932799000                       # Cumulative time (in ticks) in various power states
system.tsunami.fake_pnp_read3.pwrStateResidencyTicks::UNDEFINED   6932799000                       # Cumulative time (in ticks) in various power states
system.tsunami.fake_pnp_read4.pwrStateResidencyTicks::UNDEFINED   6932799000                       # Cumulative time (in ticks) in various power states
system.tsunami.fake_pnp_read5.pwrStateResidencyTicks::UNDEFINED   6932799000                       # Cumulative time (in ticks) in various power states
system.tsunami.fake_pnp_read6.pwrStateResidencyTicks::UNDEFINED   6932799000                       # Cumulative time (in ticks) in various power states
system.tsunami.fake_pnp_read7.pwrStateResidencyTicks::UNDEFINED   6932799000                       # Cumulative time (in ticks) in various power states
system.tsunami.fake_pnp_write.pwrStateResidencyTicks::UNDEFINED   6932799000                       # Cumulative time (in ticks) in various power states
system.tsunami.fake_ppc.pwrStateResidencyTicks::UNDEFINED   6932799000                       # Cumulative time (in ticks) in various power states
system.tsunami.fake_sm_chip.pwrStateResidencyTicks::UNDEFINED   6932799000                       # Cumulative time (in ticks) in various power states
system.tsunami.fake_uart1.pwrStateResidencyTicks::UNDEFINED   6932799000                       # Cumulative time (in ticks) in various power states
system.tsunami.fake_uart2.pwrStateResidencyTicks::UNDEFINED   6932799000                       # Cumulative time (in ticks) in various power states
system.tsunami.fake_uart3.pwrStateResidencyTicks::UNDEFINED   6932799000                       # Cumulative time (in ticks) in various power states
system.tsunami.fake_uart4.pwrStateResidencyTicks::UNDEFINED   6932799000                       # Cumulative time (in ticks) in various power states
system.tsunami.fb.pwrStateResidencyTicks::UNDEFINED   6932799000                       # Cumulative time (in ticks) in various power states
system.tsunami.ide.pwrStateResidencyTicks::UNDEFINED   6932799000                       # Cumulative time (in ticks) in various power states
system.tsunami.io.pwrStateResidencyTicks::UNDEFINED   6932799000                       # Cumulative time (in ticks) in various power states
system.tsunami.uart.pwrStateResidencyTicks::UNDEFINED   6932799000                       # Cumulative time (in ticks) in various power states

---------- End Simulation Statistics   ----------
