
---------- Begin Simulation Statistics ----------
sim_seconds                                  2.446091                       # Number of seconds simulated
sim_ticks                                2446090960500                       # Number of ticks simulated
final_tick                               2446090960500                       # Number of ticks from beginning of simulation (restored from checkpoints and never reset)
sim_freq                                 1000000000000                       # Frequency of simulated ticks
host_inst_rate                                 193331                       # Simulator instruction rate (inst/s)
host_op_rate                                   193331                       # Simulator op (including micro ops) rate (op/s)
host_tick_rate                             5167131012                       # Simulator tick rate (ticks/s)
host_mem_usage                                 738152                       # Number of bytes of host memory used
host_seconds                                   473.39                       # Real time elapsed on the host
sim_insts                                    91521971                       # Number of instructions simulated
sim_ops                                      91521971                       # Number of ops (including micro ops) simulated
system.voltage_domain.voltage                       1                       # Voltage in Volts
system.clk_domain.clock                          1000                       # Clock period in ticks
system.mem_ctrls.pwrStateResidencyTicks::UNDEFINED 2446090960500                       # Cumulative time (in ticks) in various power states
system.mem_ctrls.bytes_read::cpu.inst         1552000                       # Number of bytes read from this memory
system.mem_ctrls.bytes_read::cpu.data        23755456                       # Number of bytes read from this memory
system.mem_ctrls.bytes_read::tsunami.ide         4032                       # Number of bytes read from this memory
system.mem_ctrls.bytes_read::total           25311488                       # Number of bytes read from this memory
system.mem_ctrls.bytes_inst_read::cpu.inst      1552000                       # Number of instructions bytes read from this memory
system.mem_ctrls.bytes_inst_read::total       1552000                       # Number of instructions bytes read from this memory
system.mem_ctrls.bytes_written::writebacks     18984320                       # Number of bytes written to this memory
system.mem_ctrls.bytes_written::total        18984320                       # Number of bytes written to this memory
system.mem_ctrls.num_reads::cpu.inst            48500                       # Number of read requests responded to by this memory
system.mem_ctrls.num_reads::cpu.data           742358                       # Number of read requests responded to by this memory
system.mem_ctrls.num_reads::tsunami.ide           126                       # Number of read requests responded to by this memory
system.mem_ctrls.num_reads::total              790984                       # Number of read requests responded to by this memory
system.mem_ctrls.num_writes::writebacks        593260                       # Number of write requests responded to by this memory
system.mem_ctrls.num_writes::total             593260                       # Number of write requests responded to by this memory
system.mem_ctrls.bw_read::cpu.inst             634482                       # Total read bandwidth from this memory (bytes/s)
system.mem_ctrls.bw_read::cpu.data            9711600                       # Total read bandwidth from this memory (bytes/s)
system.mem_ctrls.bw_read::tsunami.ide            1648                       # Total read bandwidth from this memory (bytes/s)
system.mem_ctrls.bw_read::total              10347730                       # Total read bandwidth from this memory (bytes/s)
system.mem_ctrls.bw_inst_read::cpu.inst        634482                       # Instruction read bandwidth from this memory (bytes/s)
system.mem_ctrls.bw_inst_read::total           634482                       # Instruction read bandwidth from this memory (bytes/s)
system.mem_ctrls.bw_write::writebacks         7761085                       # Write bandwidth from this memory (bytes/s)
system.mem_ctrls.bw_write::total              7761085                       # Write bandwidth from this memory (bytes/s)
system.mem_ctrls.bw_total::writebacks         7761085                       # Total bandwidth to/from this memory (bytes/s)
system.mem_ctrls.bw_total::cpu.inst            634482                       # Total bandwidth to/from this memory (bytes/s)
system.mem_ctrls.bw_total::cpu.data           9711600                       # Total bandwidth to/from this memory (bytes/s)
system.mem_ctrls.bw_total::tsunami.ide           1648                       # Total bandwidth to/from this memory (bytes/s)
system.mem_ctrls.bw_total::total             18108815                       # Total bandwidth to/from this memory (bytes/s)
system.mem_ctrls.readReqs                      790984                       # Number of read requests accepted
system.mem_ctrls.writeReqs                     593260                       # Number of write requests accepted
system.mem_ctrls.readBursts                    790984                       # Number of DRAM read bursts, including those serviced by the write queue
system.mem_ctrls.writeBursts                   593260                       # Number of DRAM write bursts, including those merged in the write queue
system.mem_ctrls.bytesReadDRAM               50608192                       # Total number of bytes read from DRAM
system.mem_ctrls.bytesReadWrQ                   14784                       # Total number of bytes read from write queue
system.mem_ctrls.bytesWritten                25327616                       # Total number of bytes written to DRAM
system.mem_ctrls.bytesReadSys                25311488                       # Total read bytes from the system interface side
system.mem_ctrls.bytesWrittenSys             18984320                       # Total written bytes from the system interface side
system.mem_ctrls.servicedByWrQ                    231                       # Number of DRAM read bursts serviced by the write queue
system.mem_ctrls.mergedWrBursts                197494                       # Number of DRAM write bursts merged with an existing one
system.mem_ctrls.neitherReadNorWriteReqs            0                       # Number of requests that are neither read nor write
system.mem_ctrls.perBankRdBursts::0             45830                       # Per bank write bursts
system.mem_ctrls.perBankRdBursts::1             44881                       # Per bank write bursts
system.mem_ctrls.perBankRdBursts::2             45478                       # Per bank write bursts
system.mem_ctrls.perBankRdBursts::3             45047                       # Per bank write bursts
system.mem_ctrls.perBankRdBursts::4             46522                       # Per bank write bursts
system.mem_ctrls.perBankRdBursts::5             48570                       # Per bank write bursts
system.mem_ctrls.perBankRdBursts::6             44440                       # Per bank write bursts
system.mem_ctrls.perBankRdBursts::7             47768                       # Per bank write bursts
system.mem_ctrls.perBankRdBursts::8             53694                       # Per bank write bursts
system.mem_ctrls.perBankRdBursts::9             48655                       # Per bank write bursts
system.mem_ctrls.perBankRdBursts::10            49862                       # Per bank write bursts
system.mem_ctrls.perBankRdBursts::11            61124                       # Per bank write bursts
system.mem_ctrls.perBankRdBursts::12            55770                       # Per bank write bursts
system.mem_ctrls.perBankRdBursts::13            56095                       # Per bank write bursts
system.mem_ctrls.perBankRdBursts::14            48578                       # Per bank write bursts
system.mem_ctrls.perBankRdBursts::15            48439                       # Per bank write bursts
system.mem_ctrls.perBankWrBursts::0             23659                       # Per bank write bursts
system.mem_ctrls.perBankWrBursts::1             23891                       # Per bank write bursts
system.mem_ctrls.perBankWrBursts::2             23563                       # Per bank write bursts
system.mem_ctrls.perBankWrBursts::3             23367                       # Per bank write bursts
system.mem_ctrls.perBankWrBursts::4             24104                       # Per bank write bursts
system.mem_ctrls.perBankWrBursts::5             25045                       # Per bank write bursts
system.mem_ctrls.perBankWrBursts::6             22432                       # Per bank write bursts
system.mem_ctrls.perBankWrBursts::7             24049                       # Per bank write bursts
system.mem_ctrls.perBankWrBursts::8             25123                       # Per bank write bursts
system.mem_ctrls.perBankWrBursts::9             24348                       # Per bank write bursts
system.mem_ctrls.perBankWrBursts::10            24954                       # Per bank write bursts
system.mem_ctrls.perBankWrBursts::11            28720                       # Per bank write bursts
system.mem_ctrls.perBankWrBursts::12            26239                       # Per bank write bursts
system.mem_ctrls.perBankWrBursts::13            25981                       # Per bank write bursts
system.mem_ctrls.perBankWrBursts::14            24658                       # Per bank write bursts
system.mem_ctrls.perBankWrBursts::15            25611                       # Per bank write bursts
system.mem_ctrls.numRdRetry                         0                       # Number of times read queue was full causing retry
system.mem_ctrls.numWrRetry                        77                       # Number of times write queue was full causing retry
system.mem_ctrls.totGap                  2446090864500                       # Total gap between requests
system.mem_ctrls.readPktSize::0                     0                       # Read request sizes (log2)
system.mem_ctrls.readPktSize::1                     0                       # Read request sizes (log2)
system.mem_ctrls.readPktSize::2                     0                       # Read request sizes (log2)
system.mem_ctrls.readPktSize::3                     0                       # Read request sizes (log2)
system.mem_ctrls.readPktSize::4                     0                       # Read request sizes (log2)
system.mem_ctrls.readPktSize::5                790984                       # Read request sizes (log2)
system.mem_ctrls.readPktSize::6                     0                       # Read request sizes (log2)
system.mem_ctrls.writePktSize::0                    0                       # Write request sizes (log2)
system.mem_ctrls.writePktSize::1                    0                       # Write request sizes (log2)
system.mem_ctrls.writePktSize::2                    0                       # Write request sizes (log2)
system.mem_ctrls.writePktSize::3                    0                       # Write request sizes (log2)
system.mem_ctrls.writePktSize::4                    0                       # Write request sizes (log2)
system.mem_ctrls.writePktSize::5               593260                       # Write request sizes (log2)
system.mem_ctrls.writePktSize::6                    0                       # Write request sizes (log2)
system.mem_ctrls.rdQLenPdf::0                  790623                       # What read queue length does an incoming req see
system.mem_ctrls.rdQLenPdf::1                       4                       # What read queue length does an incoming req see
system.mem_ctrls.rdQLenPdf::2                       4                       # What read queue length does an incoming req see
system.mem_ctrls.rdQLenPdf::3                       4                       # What read queue length does an incoming req see
system.mem_ctrls.rdQLenPdf::4                       7                       # What read queue length does an incoming req see
system.mem_ctrls.rdQLenPdf::5                       7                       # What read queue length does an incoming req see
system.mem_ctrls.rdQLenPdf::6                       9                       # What read queue length does an incoming req see
system.mem_ctrls.rdQLenPdf::7                      15                       # What read queue length does an incoming req see
system.mem_ctrls.rdQLenPdf::8                      20                       # What read queue length does an incoming req see
system.mem_ctrls.rdQLenPdf::9                      26                       # What read queue length does an incoming req see
system.mem_ctrls.rdQLenPdf::10                     11                       # What read queue length does an incoming req see
system.mem_ctrls.rdQLenPdf::11                      5                       # What read queue length does an incoming req see
system.mem_ctrls.rdQLenPdf::12                      2                       # What read queue length does an incoming req see
system.mem_ctrls.rdQLenPdf::13                      2                       # What read queue length does an incoming req see
system.mem_ctrls.rdQLenPdf::14                      2                       # What read queue length does an incoming req see
system.mem_ctrls.rdQLenPdf::15                      2                       # What read queue length does an incoming req see
system.mem_ctrls.rdQLenPdf::16                      2                       # What read queue length does an incoming req see
system.mem_ctrls.rdQLenPdf::17                      3                       # What read queue length does an incoming req see
system.mem_ctrls.rdQLenPdf::18                      2                       # What read queue length does an incoming req see
system.mem_ctrls.rdQLenPdf::19                      2                       # What read queue length does an incoming req see
system.mem_ctrls.rdQLenPdf::20                      1                       # What read queue length does an incoming req see
system.mem_ctrls.rdQLenPdf::21                      0                       # What read queue length does an incoming req see
system.mem_ctrls.rdQLenPdf::22                      0                       # What read queue length does an incoming req see
system.mem_ctrls.rdQLenPdf::23                      0                       # What read queue length does an incoming req see
system.mem_ctrls.rdQLenPdf::24                      0                       # What read queue length does an incoming req see
system.mem_ctrls.rdQLenPdf::25                      0                       # What read queue length does an incoming req see
system.mem_ctrls.rdQLenPdf::26                      0                       # What read queue length does an incoming req see
system.mem_ctrls.rdQLenPdf::27                      0                       # What read queue length does an incoming req see
system.mem_ctrls.rdQLenPdf::28                      0                       # What read queue length does an incoming req see
system.mem_ctrls.rdQLenPdf::29                      0                       # What read queue length does an incoming req see
system.mem_ctrls.rdQLenPdf::30                      0                       # What read queue length does an incoming req see
system.mem_ctrls.rdQLenPdf::31                      0                       # What read queue length does an incoming req see
system.mem_ctrls.wrQLenPdf::0                       1                       # What write queue length does an incoming req see
system.mem_ctrls.wrQLenPdf::1                       1                       # What write queue length does an incoming req see
system.mem_ctrls.wrQLenPdf::2                       1                       # What write queue length does an incoming req see
system.mem_ctrls.wrQLenPdf::3                       1                       # What write queue length does an incoming req see
system.mem_ctrls.wrQLenPdf::4                       1                       # What write queue length does an incoming req see
system.mem_ctrls.wrQLenPdf::5                       1                       # What write queue length does an incoming req see
system.mem_ctrls.wrQLenPdf::6                       1                       # What write queue length does an incoming req see
system.mem_ctrls.wrQLenPdf::7                       1                       # What write queue length does an incoming req see
system.mem_ctrls.wrQLenPdf::8                       1                       # What write queue length does an incoming req see
system.mem_ctrls.wrQLenPdf::9                       1                       # What write queue length does an incoming req see
system.mem_ctrls.wrQLenPdf::10                      1                       # What write queue length does an incoming req see
system.mem_ctrls.wrQLenPdf::11                      1                       # What write queue length does an incoming req see
system.mem_ctrls.wrQLenPdf::12                      1                       # What write queue length does an incoming req see
system.mem_ctrls.wrQLenPdf::13                      1                       # What write queue length does an incoming req see
system.mem_ctrls.wrQLenPdf::14                      1                       # What write queue length does an incoming req see
system.mem_ctrls.wrQLenPdf::15                   4062                       # What write queue length does an incoming req see
system.mem_ctrls.wrQLenPdf::16                   4914                       # What write queue length does an incoming req see
system.mem_ctrls.wrQLenPdf::17                  23710                       # What write queue length does an incoming req see
system.mem_ctrls.wrQLenPdf::18                  23427                       # What write queue length does an incoming req see
system.mem_ctrls.wrQLenPdf::19                  23289                       # What write queue length does an incoming req see
system.mem_ctrls.wrQLenPdf::20                  23705                       # What write queue length does an incoming req see
system.mem_ctrls.wrQLenPdf::21                  23798                       # What write queue length does an incoming req see
system.mem_ctrls.wrQLenPdf::22                  24103                       # What write queue length does an incoming req see
system.mem_ctrls.wrQLenPdf::23                  25376                       # What write queue length does an incoming req see
system.mem_ctrls.wrQLenPdf::24                  24083                       # What write queue length does an incoming req see
system.mem_ctrls.wrQLenPdf::25                  24095                       # What write queue length does an incoming req see
system.mem_ctrls.wrQLenPdf::26                  24980                       # What write queue length does an incoming req see
system.mem_ctrls.wrQLenPdf::27                  23826                       # What write queue length does an incoming req see
system.mem_ctrls.wrQLenPdf::28                  23917                       # What write queue length does an incoming req see
system.mem_ctrls.wrQLenPdf::29                  23697                       # What write queue length does an incoming req see
system.mem_ctrls.wrQLenPdf::30                  23603                       # What write queue length does an incoming req see
system.mem_ctrls.wrQLenPdf::31                  23140                       # What write queue length does an incoming req see
system.mem_ctrls.wrQLenPdf::32                  23069                       # What write queue length does an incoming req see
system.mem_ctrls.wrQLenPdf::33                    342                       # What write queue length does an incoming req see
system.mem_ctrls.wrQLenPdf::34                    327                       # What write queue length does an incoming req see
system.mem_ctrls.wrQLenPdf::35                    237                       # What write queue length does an incoming req see
system.mem_ctrls.wrQLenPdf::36                    236                       # What write queue length does an incoming req see
system.mem_ctrls.wrQLenPdf::37                    223                       # What write queue length does an incoming req see
system.mem_ctrls.wrQLenPdf::38                    275                       # What write queue length does an incoming req see
system.mem_ctrls.wrQLenPdf::39                    211                       # What write queue length does an incoming req see
system.mem_ctrls.wrQLenPdf::40                    221                       # What write queue length does an incoming req see
system.mem_ctrls.wrQLenPdf::41                    230                       # What write queue length does an incoming req see
system.mem_ctrls.wrQLenPdf::42                    181                       # What write queue length does an incoming req see
system.mem_ctrls.wrQLenPdf::43                    175                       # What write queue length does an incoming req see
system.mem_ctrls.wrQLenPdf::44                    176                       # What write queue length does an incoming req see
system.mem_ctrls.wrQLenPdf::45                    158                       # What write queue length does an incoming req see
system.mem_ctrls.wrQLenPdf::46                    129                       # What write queue length does an incoming req see
system.mem_ctrls.wrQLenPdf::47                    125                       # What write queue length does an incoming req see
system.mem_ctrls.wrQLenPdf::48                    112                       # What write queue length does an incoming req see
system.mem_ctrls.wrQLenPdf::49                    101                       # What write queue length does an incoming req see
system.mem_ctrls.wrQLenPdf::50                    107                       # What write queue length does an incoming req see
system.mem_ctrls.wrQLenPdf::51                    120                       # What write queue length does an incoming req see
system.mem_ctrls.wrQLenPdf::52                    110                       # What write queue length does an incoming req see
system.mem_ctrls.wrQLenPdf::53                    107                       # What write queue length does an incoming req see
system.mem_ctrls.wrQLenPdf::54                     96                       # What write queue length does an incoming req see
system.mem_ctrls.wrQLenPdf::55                     79                       # What write queue length does an incoming req see
system.mem_ctrls.wrQLenPdf::56                     89                       # What write queue length does an incoming req see
system.mem_ctrls.wrQLenPdf::57                     88                       # What write queue length does an incoming req see
system.mem_ctrls.wrQLenPdf::58                    117                       # What write queue length does an incoming req see
system.mem_ctrls.wrQLenPdf::59                    137                       # What write queue length does an incoming req see
system.mem_ctrls.wrQLenPdf::60                    175                       # What write queue length does an incoming req see
system.mem_ctrls.wrQLenPdf::61                     83                       # What write queue length does an incoming req see
system.mem_ctrls.wrQLenPdf::62                     92                       # What write queue length does an incoming req see
system.mem_ctrls.wrQLenPdf::63                     98                       # What write queue length does an incoming req see
system.mem_ctrls.bytesPerActivate::samples       170310                       # Bytes accessed per row activation
system.mem_ctrls.bytesPerActivate::mean    445.867794                       # Bytes accessed per row activation
system.mem_ctrls.bytesPerActivate::gmean   260.378205                       # Bytes accessed per row activation
system.mem_ctrls.bytesPerActivate::stdev   396.503351                       # Bytes accessed per row activation
system.mem_ctrls.bytesPerActivate::0-127        48262     28.34%     28.34% # Bytes accessed per row activation
system.mem_ctrls.bytesPerActivate::128-255        32416     19.03%     47.37% # Bytes accessed per row activation
system.mem_ctrls.bytesPerActivate::256-383        14759      8.67%     56.04% # Bytes accessed per row activation
system.mem_ctrls.bytesPerActivate::384-511         9950      5.84%     61.88% # Bytes accessed per row activation
system.mem_ctrls.bytesPerActivate::512-639         6955      4.08%     65.96% # Bytes accessed per row activation
system.mem_ctrls.bytesPerActivate::640-767         5233      3.07%     69.04% # Bytes accessed per row activation
system.mem_ctrls.bytesPerActivate::768-895         5030      2.95%     71.99% # Bytes accessed per row activation
system.mem_ctrls.bytesPerActivate::896-1023         5157      3.03%     75.02% # Bytes accessed per row activation
system.mem_ctrls.bytesPerActivate::1024-1151        42548     24.98%    100.00% # Bytes accessed per row activation
system.mem_ctrls.bytesPerActivate::total       170310                       # Bytes accessed per row activation
system.mem_ctrls.rdPerTurnAround::samples        22864                       # Reads before turning the bus around for writes
system.mem_ctrls.rdPerTurnAround::mean      34.584587                       # Reads before turning the bus around for writes
system.mem_ctrls.rdPerTurnAround::stdev    454.832650                       # Reads before turning the bus around for writes
system.mem_ctrls.rdPerTurnAround::0-2047        22858     99.97%     99.97% # Reads before turning the bus around for writes
system.mem_ctrls.rdPerTurnAround::2048-4095            2      0.01%     99.98% # Reads before turning the bus around for writes
system.mem_ctrls.rdPerTurnAround::8192-10239            1      0.00%     99.99% # Reads before turning the bus around for writes
system.mem_ctrls.rdPerTurnAround::18432-20479            1      0.00%     99.99% # Reads before turning the bus around for writes
system.mem_ctrls.rdPerTurnAround::45056-47103            2      0.01%    100.00% # Reads before turning the bus around for writes
system.mem_ctrls.rdPerTurnAround::total         22864                       # Reads before turning the bus around for writes
system.mem_ctrls.wrPerTurnAround::samples        22864                       # Writes before turning the bus around for reads
system.mem_ctrls.wrPerTurnAround::mean      17.308607                       # Writes before turning the bus around for reads
system.mem_ctrls.wrPerTurnAround::gmean     16.904353                       # Writes before turning the bus around for reads
system.mem_ctrls.wrPerTurnAround::stdev      5.552036                       # Writes before turning the bus around for reads
system.mem_ctrls.wrPerTurnAround::16-17         18751     82.01%     82.01% # Writes before turning the bus around for reads
system.mem_ctrls.wrPerTurnAround::18-19          2914     12.74%     94.76% # Writes before turning the bus around for reads
system.mem_ctrls.wrPerTurnAround::20-21            35      0.15%     94.91% # Writes before turning the bus around for reads
system.mem_ctrls.wrPerTurnAround::22-23            12      0.05%     94.96% # Writes before turning the bus around for reads
system.mem_ctrls.wrPerTurnAround::24-25            17      0.07%     95.04% # Writes before turning the bus around for reads
system.mem_ctrls.wrPerTurnAround::26-27           411      1.80%     96.83% # Writes before turning the bus around for reads
system.mem_ctrls.wrPerTurnAround::28-29            55      0.24%     97.07% # Writes before turning the bus around for reads
system.mem_ctrls.wrPerTurnAround::30-31            14      0.06%     97.14% # Writes before turning the bus around for reads
system.mem_ctrls.wrPerTurnAround::32-33           218      0.95%     98.09% # Writes before turning the bus around for reads
system.mem_ctrls.wrPerTurnAround::34-35            39      0.17%     98.26% # Writes before turning the bus around for reads
system.mem_ctrls.wrPerTurnAround::36-37            39      0.17%     98.43% # Writes before turning the bus around for reads
system.mem_ctrls.wrPerTurnAround::38-39            30      0.13%     98.56% # Writes before turning the bus around for reads
system.mem_ctrls.wrPerTurnAround::40-41           179      0.78%     99.34% # Writes before turning the bus around for reads
system.mem_ctrls.wrPerTurnAround::42-43            13      0.06%     99.40% # Writes before turning the bus around for reads
system.mem_ctrls.wrPerTurnAround::44-45             6      0.03%     99.43% # Writes before turning the bus around for reads
system.mem_ctrls.wrPerTurnAround::46-47            11      0.05%     99.48% # Writes before turning the bus around for reads
system.mem_ctrls.wrPerTurnAround::48-49            11      0.05%     99.52% # Writes before turning the bus around for reads
system.mem_ctrls.wrPerTurnAround::50-51             3      0.01%     99.54% # Writes before turning the bus around for reads
system.mem_ctrls.wrPerTurnAround::52-53             4      0.02%     99.55% # Writes before turning the bus around for reads
system.mem_ctrls.wrPerTurnAround::54-55             6      0.03%     99.58% # Writes before turning the bus around for reads
system.mem_ctrls.wrPerTurnAround::56-57             1      0.00%     99.58% # Writes before turning the bus around for reads
system.mem_ctrls.wrPerTurnAround::58-59             4      0.02%     99.60% # Writes before turning the bus around for reads
system.mem_ctrls.wrPerTurnAround::60-61             4      0.02%     99.62% # Writes before turning the bus around for reads
system.mem_ctrls.wrPerTurnAround::62-63             5      0.02%     99.64% # Writes before turning the bus around for reads
system.mem_ctrls.wrPerTurnAround::64-65             3      0.01%     99.65% # Writes before turning the bus around for reads
system.mem_ctrls.wrPerTurnAround::66-67             2      0.01%     99.66% # Writes before turning the bus around for reads
system.mem_ctrls.wrPerTurnAround::68-69            15      0.07%     99.73% # Writes before turning the bus around for reads
system.mem_ctrls.wrPerTurnAround::70-71             3      0.01%     99.74% # Writes before turning the bus around for reads
system.mem_ctrls.wrPerTurnAround::72-73             4      0.02%     99.76% # Writes before turning the bus around for reads
system.mem_ctrls.wrPerTurnAround::74-75             9      0.04%     99.80% # Writes before turning the bus around for reads
system.mem_ctrls.wrPerTurnAround::80-81            11      0.05%     99.85% # Writes before turning the bus around for reads
system.mem_ctrls.wrPerTurnAround::82-83             2      0.01%     99.86% # Writes before turning the bus around for reads
system.mem_ctrls.wrPerTurnAround::84-85             2      0.01%     99.86% # Writes before turning the bus around for reads
system.mem_ctrls.wrPerTurnAround::86-87             1      0.00%     99.87% # Writes before turning the bus around for reads
system.mem_ctrls.wrPerTurnAround::88-89             3      0.01%     99.88% # Writes before turning the bus around for reads
system.mem_ctrls.wrPerTurnAround::90-91             6      0.03%     99.91% # Writes before turning the bus around for reads
system.mem_ctrls.wrPerTurnAround::92-93             3      0.01%     99.92% # Writes before turning the bus around for reads
system.mem_ctrls.wrPerTurnAround::94-95             6      0.03%     99.95% # Writes before turning the bus around for reads
system.mem_ctrls.wrPerTurnAround::96-97             2      0.01%     99.96% # Writes before turning the bus around for reads
system.mem_ctrls.wrPerTurnAround::98-99             1      0.00%     99.96% # Writes before turning the bus around for reads
system.mem_ctrls.wrPerTurnAround::100-101            5      0.02%     99.98% # Writes before turning the bus around for reads
system.mem_ctrls.wrPerTurnAround::102-103            1      0.00%     99.99% # Writes before turning the bus around for reads
system.mem_ctrls.wrPerTurnAround::104-105            1      0.00%     99.99% # Writes before turning the bus around for reads
system.mem_ctrls.wrPerTurnAround::110-111            1      0.00%    100.00% # Writes before turning the bus around for reads
system.mem_ctrls.wrPerTurnAround::112-113            1      0.00%    100.00% # Writes before turning the bus around for reads
system.mem_ctrls.wrPerTurnAround::total         22864                       # Writes before turning the bus around for reads
system.mem_ctrls.totQLat                  14375113001                       # Total ticks spent queuing
system.mem_ctrls.totMemAccLat             29201731751                       # Total ticks spent from burst creation until serviced by the DRAM
system.mem_ctrls.totBusLat                 3953765000                       # Total ticks spent in databus transfers
system.mem_ctrls.avgQLat                     18179.02                       # Average queueing delay per DRAM burst
system.mem_ctrls.avgBusLat                    5000.00                       # Average bus latency per DRAM burst
system.mem_ctrls.avgMemAccLat                36929.02                       # Average memory access latency per DRAM burst
system.mem_ctrls.avgRdBW                        20.69                       # Average DRAM read bandwidth in MiByte/s
system.mem_ctrls.avgWrBW                        10.35                       # Average achieved write bandwidth in MiByte/s
system.mem_ctrls.avgRdBWSys                     10.35                       # Average system read bandwidth in MiByte/s
system.mem_ctrls.avgWrBWSys                      7.76                       # Average system write bandwidth in MiByte/s
system.mem_ctrls.peakBW                      12800.00                       # Theoretical peak bandwidth in MiByte/s
system.mem_ctrls.busUtil                         0.24                       # Data bus utilization in percentage
system.mem_ctrls.busUtilRead                     0.16                       # Data bus utilization in percentage for reads
system.mem_ctrls.busUtilWrite                    0.08                       # Data bus utilization in percentage for writes
system.mem_ctrls.avgRdQLen                       1.00                       # Average read queue length when enqueuing
system.mem_ctrls.avgWrQLen                      23.84                       # Average write queue length when enqueuing
system.mem_ctrls.readRowHits                   692200                       # Number of row buffer hits during reads
system.mem_ctrls.writeRowHits                  323986                       # Number of row buffer hits during writes
system.mem_ctrls.readRowHitRate                 87.54                       # Row buffer hit rate for reads
system.mem_ctrls.writeRowHitRate                81.86                       # Row buffer hit rate for writes
system.mem_ctrls.avgGap                    1767095.15                       # Average gap between requests
system.mem_ctrls.pageHitRate                    85.64                       # Row buffer hit rate, read and write combined
system.mem_ctrls_0.actEnergy                565195260                       # Energy for activate commands per rank (pJ)
system.mem_ctrls_0.preEnergy                300404610                       # Energy for precharge commands per rank (pJ)
system.mem_ctrls_0.readEnergy              2631347040                       # Energy for read commands per rank (pJ)
system.mem_ctrls_0.writeEnergy              992374200                       # Energy for write commands per rank (pJ)
system.mem_ctrls_0.refreshEnergy         12766072800.000002                       # Energy for refresh commands per rank (pJ)
system.mem_ctrls_0.actBackEnergy          10809048510                       # Energy for active background per rank (pJ)
system.mem_ctrls_0.preBackEnergy            823432320                       # Energy for precharge background per rank (pJ)
system.mem_ctrls_0.actPowerDownEnergy     30240529200                       # Energy for active power-down per rank (pJ)
system.mem_ctrls_0.prePowerDownEnergy     15658441440                       # Energy for precharge power-down per rank (pJ)
system.mem_ctrls_0.selfRefreshEnergy     557346907020                       # Energy for self refresh per rank (pJ)
system.mem_ctrls_0.totalEnergy           632137931640                       # Total energy per rank (pJ)
system.mem_ctrls_0.averagePower            258.427811                       # Core power per rank (mW)
system.mem_ctrls_0.totalIdleTime         2420233627500                       # Total Idle time Per DRAM Rank
system.mem_ctrls_0.memoryStateTime::IDLE   1310415500                       # Time in different power states
system.mem_ctrls_0.memoryStateTime::REF    5424866000                       # Time in different power states
system.mem_ctrls_0.memoryStateTime::SREF 2313139122500                       # Time in different power states
system.mem_ctrls_0.memoryStateTime::PRE_PDN  40777264750                       # Time in different power states
system.mem_ctrls_0.memoryStateTime::ACT   19121926500                       # Time in different power states
system.mem_ctrls_0.memoryStateTime::ACT_PDN  66317365250                       # Time in different power states
system.mem_ctrls_1.actEnergy                650825280                       # Energy for activate commands per rank (pJ)
system.mem_ctrls_1.preEnergy                345921840                       # Energy for precharge commands per rank (pJ)
system.mem_ctrls_1.readEnergy              3014629380                       # Energy for read commands per rank (pJ)
system.mem_ctrls_1.writeEnergy             1073409480                       # Energy for write commands per rank (pJ)
system.mem_ctrls_1.refreshEnergy         12253463040.000002                       # Energy for refresh commands per rank (pJ)
system.mem_ctrls_1.actBackEnergy          11159604210                       # Energy for active background per rank (pJ)
system.mem_ctrls_1.preBackEnergy            737652480                       # Energy for precharge background per rank (pJ)
system.mem_ctrls_1.actPowerDownEnergy     31325806350                       # Energy for active power-down per rank (pJ)
system.mem_ctrls_1.prePowerDownEnergy     13700657280                       # Energy for precharge power-down per rank (pJ)
system.mem_ctrls_1.selfRefreshEnergy     557539339080                       # Energy for self refresh per rank (pJ)
system.mem_ctrls_1.totalEnergy           631805606550                       # Total energy per rank (pJ)
system.mem_ctrls_1.averagePower            258.291951                       # Core power per rank (mW)
system.mem_ctrls_1.totalIdleTime         2419687647750                       # Total Idle time Per DRAM Rank
system.mem_ctrls_1.memoryStateTime::IDLE   1095105500                       # Time in different power states
system.mem_ctrls_1.memoryStateTime::REF    5204234750                       # Time in different power states
system.mem_ctrls_1.memoryStateTime::SREF 2315312029000                       # Time in different power states
system.mem_ctrls_1.memoryStateTime::PRE_PDN  35678828500                       # Time in different power states
system.mem_ctrls_1.memoryStateTime::ACT   20103972500                       # Time in different power states
system.mem_ctrls_1.memoryStateTime::ACT_PDN  68696790250                       # Time in different power states
system.pwrStateResidencyTicks::UNDEFINED 2446090960500                       # Cumulative time (in ticks) in various power states
system.bridge.pwrStateResidencyTicks::UNDEFINED 2446090960500                       # Cumulative time (in ticks) in various power states
system.cpu_voltage_domain.voltage                   1                       # Voltage in Volts
system.cpu_clk_domain.clock                       500                       # Clock period in ticks
system.cpu.dtb.fetch_hits                           0                       # ITB hits
system.cpu.dtb.fetch_misses                         0                       # ITB misses
system.cpu.dtb.fetch_acv                            0                       # ITB acv
system.cpu.dtb.fetch_accesses                       0                       # ITB accesses
system.cpu.dtb.read_hits                     16011042                       # DTB read hits
system.cpu.dtb.read_misses                      12434                       # DTB read misses
system.cpu.dtb.read_acv                            98                       # DTB read access violations
system.cpu.dtb.read_accesses                   817021                       # DTB read accesses
system.cpu.dtb.write_hits                     8864006                       # DTB write hits
system.cpu.dtb.write_misses                      1307                       # DTB write misses
system.cpu.dtb.write_acv                          169                       # DTB write access violations
system.cpu.dtb.write_accesses                  324494                       # DTB write accesses
system.cpu.dtb.data_hits                     24875048                       # DTB hits
system.cpu.dtb.data_misses                      13741                       # DTB misses
system.cpu.dtb.data_acv                           267                       # DTB access violations
system.cpu.dtb.data_accesses                  1141515                       # DTB accesses
system.cpu.itb.fetch_hits                     5651783                       # ITB hits
system.cpu.itb.fetch_misses                      6040                       # ITB misses
system.cpu.itb.fetch_acv                            1                       # ITB acv
system.cpu.itb.fetch_accesses                 5657823                       # ITB accesses
system.cpu.itb.read_hits                            0                       # DTB read hits
system.cpu.itb.read_misses                          0                       # DTB read misses
system.cpu.itb.read_acv                             0                       # DTB read access violations
system.cpu.itb.read_accesses                        0                       # DTB read accesses
system.cpu.itb.write_hits                           0                       # DTB write hits
system.cpu.itb.write_misses                         0                       # DTB write misses
system.cpu.itb.write_acv                            0                       # DTB write access violations
system.cpu.itb.write_accesses                       0                       # DTB write accesses
system.cpu.itb.data_hits                            0                       # DTB hits
system.cpu.itb.data_misses                          0                       # DTB misses
system.cpu.itb.data_acv                             0                       # DTB access violations
system.cpu.itb.data_accesses                        0                       # DTB accesses
system.cpu.numPwrStateTransitions               14332                       # Number of power state transitions
system.cpu.pwrStateClkGateDist::samples          7166                       # Distribution of time spent in the clock gated state
system.cpu.pwrStateClkGateDist::mean     306852028.328217                       # Distribution of time spent in the clock gated state
system.cpu.pwrStateClkGateDist::stdev    450637482.012664                       # Distribution of time spent in the clock gated state
system.cpu.pwrStateClkGateDist::1000-5e+10         7166    100.00%    100.00% # Distribution of time spent in the clock gated state
system.cpu.pwrStateClkGateDist::min_value        43000                       # Distribution of time spent in the clock gated state
system.cpu.pwrStateClkGateDist::max_value   2000000000                       # Distribution of time spent in the clock gated state
system.cpu.pwrStateClkGateDist::total            7166                       # Distribution of time spent in the clock gated state
system.cpu.pwrStateResidencyTicks::ON    247189325500                       # Cumulative time (in ticks) in various power states
system.cpu.pwrStateResidencyTicks::CLK_GATED 2198901635000                       # Cumulative time (in ticks) in various power states
system.cpu.numCycles                       4892181921                       # number of cpu cycles simulated
system.cpu.numWorkItemsStarted                      0                       # number of work items this cpu started
system.cpu.numWorkItemsCompleted                    0                       # number of work items this cpu completed
system.cpu.kern.inst.arm                            0                       # number of arm instructions executed
system.cpu.kern.inst.quiesce                     7166                       # number of quiesce instructions executed
system.cpu.kern.callpal::cserve                     1      0.00%      0.00% # number of callpals executed
system.cpu.kern.callpal::wrmces                     1      0.00%      0.00% # number of callpals executed
system.cpu.kern.callpal::wrfen                      1      0.00%      0.00% # number of callpals executed
system.cpu.kern.callpal::wrvptptr                   1      0.00%      0.00% # number of callpals executed
system.cpu.kern.callpal::swpctx                  4539      2.12%      2.13% # number of callpals executed
system.cpu.kern.callpal::tbi                       65      0.03%      2.16% # number of callpals executed
system.cpu.kern.callpal::wrent                      7      0.00%      2.16% # number of callpals executed
system.cpu.kern.callpal::swpipl                196384     91.91%     94.07% # number of callpals executed
system.cpu.kern.callpal::rdps                    5789      2.71%     96.78% # number of callpals executed
system.cpu.kern.callpal::wrkgp                      1      0.00%     96.78% # number of callpals executed
system.cpu.kern.callpal::wrusp                      8      0.00%     96.78% # number of callpals executed
system.cpu.kern.callpal::rdusp                     10      0.00%     96.79% # number of callpals executed
system.cpu.kern.callpal::whami                      2      0.00%     96.79% # number of callpals executed
system.cpu.kern.callpal::rti                     6065      2.84%     99.63% # number of callpals executed
system.cpu.kern.callpal::callsys                  559      0.26%     99.89% # number of callpals executed
system.cpu.kern.callpal::imb                      235      0.11%    100.00% # number of callpals executed
system.cpu.kern.callpal::total                 213668                       # number of callpals executed
system.cpu.kern.inst.hwrei                     236300                       # number of hwrei instructions executed
system.cpu.kern.mode_switch::kernel              6757                       # number of protection mode switches
system.cpu.kern.mode_switch::user                1966                       # number of protection mode switches
system.cpu.kern.mode_switch::idle                2353                       # number of protection mode switches
system.cpu.kern.mode_good::kernel                2050                      
system.cpu.kern.mode_good::user                  1966                      
system.cpu.kern.mode_good::idle                    84                      
system.cpu.kern.mode_switch_good::kernel     0.303389                       # fraction of useful protection mode switches
system.cpu.kern.mode_switch_good::user              1                       # fraction of useful protection mode switches
system.cpu.kern.mode_switch_good::idle       0.035699                       # fraction of useful protection mode switches
system.cpu.kern.mode_switch_good::total      0.370170                       # fraction of useful protection mode switches
system.cpu.kern.mode_ticks::kernel       183150284500      7.49%      7.49% # number of ticks spent at the given mode
system.cpu.kern.mode_ticks::user           8833953000      0.36%      7.85% # number of ticks spent at the given mode
system.cpu.kern.mode_ticks::idle         2254105102000     92.15%    100.00% # number of ticks spent at the given mode
system.cpu.kern.swap_context                     4540                       # number of times the context was actually changed
system.cpu.kern.ipl_count::0                    82481     40.23%     40.23% # number of times we switched to this ipl
system.cpu.kern.ipl_count::21                     117      0.06%     40.29% # number of times we switched to this ipl
system.cpu.kern.ipl_count::22                    2464      1.20%     41.49% # number of times we switched to this ipl
system.cpu.kern.ipl_count::31                  119969     58.51%    100.00% # number of times we switched to this ipl
system.cpu.kern.ipl_count::total               205031                       # number of times we switched to this ipl
system.cpu.kern.ipl_good::0                     80944     49.22%     49.22% # number of times we switched to this ipl from a different ipl
system.cpu.kern.ipl_good::21                      117      0.07%     49.29% # number of times we switched to this ipl from a different ipl
system.cpu.kern.ipl_good::22                     2464      1.50%     50.78% # number of times we switched to this ipl from a different ipl
system.cpu.kern.ipl_good::31                    80944     49.22%    100.00% # number of times we switched to this ipl from a different ipl
system.cpu.kern.ipl_good::total                164469                       # number of times we switched to this ipl from a different ipl
system.cpu.kern.ipl_ticks::0             2360442170000     96.50%     96.50% # number of cycles we spent at this ipl
system.cpu.kern.ipl_ticks::21                90998500      0.00%     96.50% # number of cycles we spent at this ipl
system.cpu.kern.ipl_ticks::22              1075903000      0.04%     96.55% # number of cycles we spent at this ipl
system.cpu.kern.ipl_ticks::31             84480270000      3.45%    100.00% # number of cycles we spent at this ipl
system.cpu.kern.ipl_ticks::total         2446089341500                       # number of cycles we spent at this ipl
system.cpu.kern.ipl_used::0                  0.981365                       # fraction of swpipl calls that actually changed the ipl
system.cpu.kern.ipl_used::21                        1                       # fraction of swpipl calls that actually changed the ipl
system.cpu.kern.ipl_used::22                        1                       # fraction of swpipl calls that actually changed the ipl
system.cpu.kern.ipl_used::31                 0.674708                       # fraction of swpipl calls that actually changed the ipl
system.cpu.kern.ipl_used::total              0.802167                       # fraction of swpipl calls that actually changed the ipl
system.cpu.committedInsts                    91521971                       # Number of instructions committed
system.cpu.committedOps                      91521971                       # Number of ops (including micro ops) committed
system.cpu.num_int_alu_accesses              88526727                       # Number of integer alu accesses
system.cpu.num_fp_alu_accesses                 428395                       # Number of float alu accesses
system.cpu.num_vec_alu_accesses                     0                       # Number of vector alu accesses
system.cpu.num_func_calls                     2909708                       # number of times a function call or return occured
system.cpu.num_conditional_control_insts     11607376                       # number of instructions that are conditional controls
system.cpu.num_int_insts                     88526727                       # number of integer instructions
system.cpu.num_fp_insts                        428395                       # number of float instructions
system.cpu.num_vec_insts                            0                       # number of vector instructions
system.cpu.num_int_register_reads           120927816                       # number of times the integer registers were read
system.cpu.num_int_register_writes           66849294                       # number of times the integer registers were written
system.cpu.num_fp_register_reads               178808                       # number of times the floating registers were read
system.cpu.num_fp_register_writes              181833                       # number of times the floating registers were written
system.cpu.num_vec_register_reads                   0                       # number of times the vector registers were read
system.cpu.num_vec_register_writes                  0                       # number of times the vector registers were written
system.cpu.num_mem_refs                      24934125                       # number of memory refs
system.cpu.num_load_insts                    16052560                       # Number of load instructions
system.cpu.num_store_insts                    8881565                       # Number of store instructions
system.cpu.num_idle_cycles               4397803269.998202                       # Number of idle cycles
system.cpu.num_busy_cycles               494378651.001798                       # Number of busy cycles
system.cpu.not_idle_fraction                 0.101055                       # Percentage of non-idle cycles
system.cpu.idle_fraction                     0.898945                       # Percentage of idle cycles
system.cpu.Branches                          15127344                       # Number of branches fetched
system.cpu.op_class::No_OpClass               1594708      1.74%      1.74% # Class of executed instruction
system.cpu.op_class::IntAlu                  63091011     68.92%     70.67% # Class of executed instruction
system.cpu.op_class::IntMult                   186123      0.20%     70.87% # Class of executed instruction
system.cpu.op_class::IntDiv                         0      0.00%     70.87% # Class of executed instruction
system.cpu.op_class::FloatAdd                  117484      0.13%     71.00% # Class of executed instruction
system.cpu.op_class::FloatCmp                       0      0.00%     71.00% # Class of executed instruction
system.cpu.op_class::FloatCvt                       0      0.00%     71.00% # Class of executed instruction
system.cpu.op_class::FloatMult                      0      0.00%     71.00% # Class of executed instruction
system.cpu.op_class::FloatMultAcc                   0      0.00%     71.00% # Class of executed instruction
system.cpu.op_class::FloatDiv                    4179      0.00%     71.00% # Class of executed instruction
system.cpu.op_class::FloatMisc                      0      0.00%     71.00% # Class of executed instruction
system.cpu.op_class::FloatSqrt                      0      0.00%     71.00% # Class of executed instruction
system.cpu.op_class::SimdAdd                        0      0.00%     71.00% # Class of executed instruction
system.cpu.op_class::SimdAddAcc                     0      0.00%     71.00% # Class of executed instruction
system.cpu.op_class::SimdAlu                        0      0.00%     71.00% # Class of executed instruction
system.cpu.op_class::SimdCmp                        0      0.00%     71.00% # Class of executed instruction
system.cpu.op_class::SimdCvt                        0      0.00%     71.00% # Class of executed instruction
system.cpu.op_class::SimdMisc                       0      0.00%     71.00% # Class of executed instruction
system.cpu.op_class::SimdMult                       0      0.00%     71.00% # Class of executed instruction
system.cpu.op_class::SimdMultAcc                    0      0.00%     71.00% # Class of executed instruction
system.cpu.op_class::SimdShift                      0      0.00%     71.00% # Class of executed instruction
system.cpu.op_class::SimdShiftAcc                   0      0.00%     71.00% # Class of executed instruction
system.cpu.op_class::SimdSqrt                       0      0.00%     71.00% # Class of executed instruction
system.cpu.op_class::SimdFloatAdd                   0      0.00%     71.00% # Class of executed instruction
system.cpu.op_class::SimdFloatAlu                   0      0.00%     71.00% # Class of executed instruction
system.cpu.op_class::SimdFloatCmp                   0      0.00%     71.00% # Class of executed instruction
system.cpu.op_class::SimdFloatCvt                   0      0.00%     71.00% # Class of executed instruction
system.cpu.op_class::SimdFloatDiv                   0      0.00%     71.00% # Class of executed instruction
system.cpu.op_class::SimdFloatMisc                  0      0.00%     71.00% # Class of executed instruction
system.cpu.op_class::SimdFloatMult                  0      0.00%     71.00% # Class of executed instruction
system.cpu.op_class::SimdFloatMultAcc               0      0.00%     71.00% # Class of executed instruction
system.cpu.op_class::SimdFloatSqrt                  0      0.00%     71.00% # Class of executed instruction
system.cpu.op_class::MemRead                 16351347     17.86%     88.87% # Class of executed instruction
system.cpu.op_class::MemWrite                 8805898      9.62%     98.49% # Class of executed instruction
system.cpu.op_class::FloatMemRead              156972      0.17%     98.66% # Class of executed instruction
system.cpu.op_class::FloatMemWrite             149760      0.16%     98.82% # Class of executed instruction
system.cpu.op_class::IprAccess                1078497      1.18%    100.00% # Class of executed instruction
system.cpu.op_class::InstPrefetch                   0      0.00%    100.00% # Class of executed instruction
system.cpu.op_class::total                   91535979                       # Class of executed instruction
system.cpu.dcache.tags.pwrStateResidencyTicks::UNDEFINED 2446090960500                       # Cumulative time (in ticks) in various power states
system.cpu.dcache.tags.replacements           2981479                       # number of replacements
system.cpu.dcache.tags.tagsinuse          1023.952234                       # Cycle average of tags in use
system.cpu.dcache.tags.total_refs            21893957                       # Total number of references to valid blocks.
system.cpu.dcache.tags.sampled_refs           2981479                       # Sample count of references to valid blocks.
system.cpu.dcache.tags.avg_refs              7.343321                       # Average number of references to valid blocks.
system.cpu.dcache.tags.warmup_cycle         168190500                       # Cycle when the warmup percentage was hit.
system.cpu.dcache.tags.occ_blocks::cpu.data  1023.952234                       # Average occupied blocks per requestor
system.cpu.dcache.tags.occ_percent::cpu.data     0.999953                       # Average percentage of cache occupancy
system.cpu.dcache.tags.occ_percent::total     0.999953                       # Average percentage of cache occupancy
system.cpu.dcache.tags.occ_task_id_blocks::1024         1024                       # Occupied blocks per task id
system.cpu.dcache.tags.age_task_id_blocks_1024::0          129                       # Occupied blocks per task id
system.cpu.dcache.tags.age_task_id_blocks_1024::1          773                       # Occupied blocks per task id
system.cpu.dcache.tags.age_task_id_blocks_1024::2          115                       # Occupied blocks per task id
system.cpu.dcache.tags.age_task_id_blocks_1024::3            7                       # Occupied blocks per task id
system.cpu.dcache.tags.occ_task_id_percent::1024            1                       # Percentage of cache occupancy per task id
system.cpu.dcache.tags.tag_accesses         799675985                       # Number of tag accesses
system.cpu.dcache.tags.data_accesses        799675985                       # Number of data accesses
system.cpu.dcache.pwrStateResidencyTicks::UNDEFINED 2446090960500                       # Cumulative time (in ticks) in various power states
system.cpu.dcache.ReadReq_hits::cpu.data     13570171                       # number of ReadReq hits
system.cpu.dcache.ReadReq_hits::total        13570171                       # number of ReadReq hits
system.cpu.dcache.WriteReq_hits::cpu.data      7735851                       # number of WriteReq hits
system.cpu.dcache.WriteReq_hits::total        7735851                       # number of WriteReq hits
system.cpu.dcache.LoadLockedReq_hits::cpu.data       292742                       # number of LoadLockedReq hits
system.cpu.dcache.LoadLockedReq_hits::total       292742                       # number of LoadLockedReq hits
system.cpu.dcache.StoreCondReq_hits::cpu.data       315343                       # number of StoreCondReq hits
system.cpu.dcache.StoreCondReq_hits::total       315343                       # number of StoreCondReq hits
system.cpu.dcache.demand_hits::cpu.data      21306022                       # number of demand (read+write) hits
system.cpu.dcache.demand_hits::total         21306022                       # number of demand (read+write) hits
system.cpu.dcache.overall_hits::cpu.data     21306022                       # number of overall hits
system.cpu.dcache.overall_hits::total        21306022                       # number of overall hits
system.cpu.dcache.ReadReq_misses::cpu.data      2146376                       # number of ReadReq misses
system.cpu.dcache.ReadReq_misses::total       2146376                       # number of ReadReq misses
system.cpu.dcache.WriteReq_misses::cpu.data       812505                       # number of WriteReq misses
system.cpu.dcache.WriteReq_misses::total       812505                       # number of WriteReq misses
system.cpu.dcache.LoadLockedReq_misses::cpu.data        23683                       # number of LoadLockedReq misses
system.cpu.dcache.LoadLockedReq_misses::total        23683                       # number of LoadLockedReq misses
system.cpu.dcache.demand_misses::cpu.data      2958881                       # number of demand (read+write) misses
system.cpu.dcache.demand_misses::total        2958881                       # number of demand (read+write) misses
system.cpu.dcache.overall_misses::cpu.data      2958881                       # number of overall misses
system.cpu.dcache.overall_misses::total       2958881                       # number of overall misses
system.cpu.dcache.ReadReq_miss_latency::cpu.data  51576486500                       # number of ReadReq miss cycles
system.cpu.dcache.ReadReq_miss_latency::total  51576486500                       # number of ReadReq miss cycles
system.cpu.dcache.WriteReq_miss_latency::cpu.data  43957342500                       # number of WriteReq miss cycles
system.cpu.dcache.WriteReq_miss_latency::total  43957342500                       # number of WriteReq miss cycles
system.cpu.dcache.LoadLockedReq_miss_latency::cpu.data    365907500                       # number of LoadLockedReq miss cycles
system.cpu.dcache.LoadLockedReq_miss_latency::total    365907500                       # number of LoadLockedReq miss cycles
system.cpu.dcache.demand_miss_latency::cpu.data  95533829000                       # number of demand (read+write) miss cycles
system.cpu.dcache.demand_miss_latency::total  95533829000                       # number of demand (read+write) miss cycles
system.cpu.dcache.overall_miss_latency::cpu.data  95533829000                       # number of overall miss cycles
system.cpu.dcache.overall_miss_latency::total  95533829000                       # number of overall miss cycles
system.cpu.dcache.ReadReq_accesses::cpu.data     15716547                       # number of ReadReq accesses(hits+misses)
system.cpu.dcache.ReadReq_accesses::total     15716547                       # number of ReadReq accesses(hits+misses)
system.cpu.dcache.WriteReq_accesses::cpu.data      8548356                       # number of WriteReq accesses(hits+misses)
system.cpu.dcache.WriteReq_accesses::total      8548356                       # number of WriteReq accesses(hits+misses)
system.cpu.dcache.LoadLockedReq_accesses::cpu.data       316425                       # number of LoadLockedReq accesses(hits+misses)
system.cpu.dcache.LoadLockedReq_accesses::total       316425                       # number of LoadLockedReq accesses(hits+misses)
system.cpu.dcache.StoreCondReq_accesses::cpu.data       315343                       # number of StoreCondReq accesses(hits+misses)
system.cpu.dcache.StoreCondReq_accesses::total       315343                       # number of StoreCondReq accesses(hits+misses)
system.cpu.dcache.demand_accesses::cpu.data     24264903                       # number of demand (read+write) accesses
system.cpu.dcache.demand_accesses::total     24264903                       # number of demand (read+write) accesses
system.cpu.dcache.overall_accesses::cpu.data     24264903                       # number of overall (read+write) accesses
system.cpu.dcache.overall_accesses::total     24264903                       # number of overall (read+write) accesses
system.cpu.dcache.ReadReq_miss_rate::cpu.data     0.136568                       # miss rate for ReadReq accesses
system.cpu.dcache.ReadReq_miss_rate::total     0.136568                       # miss rate for ReadReq accesses
system.cpu.dcache.WriteReq_miss_rate::cpu.data     0.095048                       # miss rate for WriteReq accesses
system.cpu.dcache.WriteReq_miss_rate::total     0.095048                       # miss rate for WriteReq accesses
system.cpu.dcache.LoadLockedReq_miss_rate::cpu.data     0.074846                       # miss rate for LoadLockedReq accesses
system.cpu.dcache.LoadLockedReq_miss_rate::total     0.074846                       # miss rate for LoadLockedReq accesses
system.cpu.dcache.demand_miss_rate::cpu.data     0.121941                       # miss rate for demand accesses
system.cpu.dcache.demand_miss_rate::total     0.121941                       # miss rate for demand accesses
system.cpu.dcache.overall_miss_rate::cpu.data     0.121941                       # miss rate for overall accesses
system.cpu.dcache.overall_miss_rate::total     0.121941                       # miss rate for overall accesses
system.cpu.dcache.ReadReq_avg_miss_latency::cpu.data 24029.567280                       # average ReadReq miss latency
system.cpu.dcache.ReadReq_avg_miss_latency::total 24029.567280                       # average ReadReq miss latency
system.cpu.dcache.WriteReq_avg_miss_latency::cpu.data 54101.011686                       # average WriteReq miss latency
system.cpu.dcache.WriteReq_avg_miss_latency::total 54101.011686                       # average WriteReq miss latency
system.cpu.dcache.LoadLockedReq_avg_miss_latency::cpu.data 15450.217456                       # average LoadLockedReq miss latency
system.cpu.dcache.LoadLockedReq_avg_miss_latency::total 15450.217456                       # average LoadLockedReq miss latency
system.cpu.dcache.demand_avg_miss_latency::cpu.data 32287.148081                       # average overall miss latency
system.cpu.dcache.demand_avg_miss_latency::total 32287.148081                       # average overall miss latency
system.cpu.dcache.overall_avg_miss_latency::cpu.data 32287.148081                       # average overall miss latency
system.cpu.dcache.overall_avg_miss_latency::total 32287.148081                       # average overall miss latency
system.cpu.dcache.blocked_cycles::no_mshrs            0                       # number of cycles access was blocked
system.cpu.dcache.blocked_cycles::no_targets            0                       # number of cycles access was blocked
system.cpu.dcache.blocked::no_mshrs                 0                       # number of cycles access was blocked
system.cpu.dcache.blocked::no_targets               0                       # number of cycles access was blocked
system.cpu.dcache.avg_blocked_cycles::no_mshrs          nan                       # average number of cycles each access was blocked
system.cpu.dcache.avg_blocked_cycles::no_targets          nan                       # average number of cycles each access was blocked
system.cpu.dcache.writebacks::writebacks      2445123                       # number of writebacks
system.cpu.dcache.writebacks::total           2445123                       # number of writebacks
system.cpu.dcache.ReadReq_mshr_misses::cpu.data      2146376                       # number of ReadReq MSHR misses
system.cpu.dcache.ReadReq_mshr_misses::total      2146376                       # number of ReadReq MSHR misses
system.cpu.dcache.WriteReq_mshr_misses::cpu.data       812505                       # number of WriteReq MSHR misses
system.cpu.dcache.WriteReq_mshr_misses::total       812505                       # number of WriteReq MSHR misses
system.cpu.dcache.LoadLockedReq_mshr_misses::cpu.data        23683                       # number of LoadLockedReq MSHR misses
system.cpu.dcache.LoadLockedReq_mshr_misses::total        23683                       # number of LoadLockedReq MSHR misses
system.cpu.dcache.demand_mshr_misses::cpu.data      2958881                       # number of demand (read+write) MSHR misses
system.cpu.dcache.demand_mshr_misses::total      2958881                       # number of demand (read+write) MSHR misses
system.cpu.dcache.overall_mshr_misses::cpu.data      2958881                       # number of overall MSHR misses
system.cpu.dcache.overall_mshr_misses::total      2958881                       # number of overall MSHR misses
system.cpu.dcache.ReadReq_mshr_uncacheable::cpu.data         7056                       # number of ReadReq MSHR uncacheable
system.cpu.dcache.ReadReq_mshr_uncacheable::total         7056                       # number of ReadReq MSHR uncacheable
system.cpu.dcache.WriteReq_mshr_uncacheable::cpu.data        10325                       # number of WriteReq MSHR uncacheable
system.cpu.dcache.WriteReq_mshr_uncacheable::total        10325                       # number of WriteReq MSHR uncacheable
system.cpu.dcache.overall_mshr_uncacheable_misses::cpu.data        17381                       # number of overall MSHR uncacheable misses
system.cpu.dcache.overall_mshr_uncacheable_misses::total        17381                       # number of overall MSHR uncacheable misses
system.cpu.dcache.ReadReq_mshr_miss_latency::cpu.data  49430110500                       # number of ReadReq MSHR miss cycles
system.cpu.dcache.ReadReq_mshr_miss_latency::total  49430110500                       # number of ReadReq MSHR miss cycles
system.cpu.dcache.WriteReq_mshr_miss_latency::cpu.data  43144837500                       # number of WriteReq MSHR miss cycles
system.cpu.dcache.WriteReq_mshr_miss_latency::total  43144837500                       # number of WriteReq MSHR miss cycles
system.cpu.dcache.LoadLockedReq_mshr_miss_latency::cpu.data    342224500                       # number of LoadLockedReq MSHR miss cycles
system.cpu.dcache.LoadLockedReq_mshr_miss_latency::total    342224500                       # number of LoadLockedReq MSHR miss cycles
system.cpu.dcache.demand_mshr_miss_latency::cpu.data  92574948000                       # number of demand (read+write) MSHR miss cycles
system.cpu.dcache.demand_mshr_miss_latency::total  92574948000                       # number of demand (read+write) MSHR miss cycles
system.cpu.dcache.overall_mshr_miss_latency::cpu.data  92574948000                       # number of overall MSHR miss cycles
system.cpu.dcache.overall_mshr_miss_latency::total  92574948000                       # number of overall MSHR miss cycles
system.cpu.dcache.ReadReq_mshr_uncacheable_latency::cpu.data   1566229500                       # number of ReadReq MSHR uncacheable cycles
system.cpu.dcache.ReadReq_mshr_uncacheable_latency::total   1566229500                       # number of ReadReq MSHR uncacheable cycles
system.cpu.dcache.overall_mshr_uncacheable_latency::cpu.data   1566229500                       # number of overall MSHR uncacheable cycles
system.cpu.dcache.overall_mshr_uncacheable_latency::total   1566229500                       # number of overall MSHR uncacheable cycles
system.cpu.dcache.ReadReq_mshr_miss_rate::cpu.data     0.136568                       # mshr miss rate for ReadReq accesses
system.cpu.dcache.ReadReq_mshr_miss_rate::total     0.136568                       # mshr miss rate for ReadReq accesses
system.cpu.dcache.WriteReq_mshr_miss_rate::cpu.data     0.095048                       # mshr miss rate for WriteReq accesses
system.cpu.dcache.WriteReq_mshr_miss_rate::total     0.095048                       # mshr miss rate for WriteReq accesses
system.cpu.dcache.LoadLockedReq_mshr_miss_rate::cpu.data     0.074846                       # mshr miss rate for LoadLockedReq accesses
system.cpu.dcache.LoadLockedReq_mshr_miss_rate::total     0.074846                       # mshr miss rate for LoadLockedReq accesses
system.cpu.dcache.demand_mshr_miss_rate::cpu.data     0.121941                       # mshr miss rate for demand accesses
system.cpu.dcache.demand_mshr_miss_rate::total     0.121941                       # mshr miss rate for demand accesses
system.cpu.dcache.overall_mshr_miss_rate::cpu.data     0.121941                       # mshr miss rate for overall accesses
system.cpu.dcache.overall_mshr_miss_rate::total     0.121941                       # mshr miss rate for overall accesses
system.cpu.dcache.ReadReq_avg_mshr_miss_latency::cpu.data 23029.567280                       # average ReadReq mshr miss latency
system.cpu.dcache.ReadReq_avg_mshr_miss_latency::total 23029.567280                       # average ReadReq mshr miss latency
system.cpu.dcache.WriteReq_avg_mshr_miss_latency::cpu.data 53101.011686                       # average WriteReq mshr miss latency
system.cpu.dcache.WriteReq_avg_mshr_miss_latency::total 53101.011686                       # average WriteReq mshr miss latency
system.cpu.dcache.LoadLockedReq_avg_mshr_miss_latency::cpu.data 14450.217456                       # average LoadLockedReq mshr miss latency
system.cpu.dcache.LoadLockedReq_avg_mshr_miss_latency::total 14450.217456                       # average LoadLockedReq mshr miss latency
system.cpu.dcache.demand_avg_mshr_miss_latency::cpu.data 31287.148081                       # average overall mshr miss latency
system.cpu.dcache.demand_avg_mshr_miss_latency::total 31287.148081                       # average overall mshr miss latency
system.cpu.dcache.overall_avg_mshr_miss_latency::cpu.data 31287.148081                       # average overall mshr miss latency
system.cpu.dcache.overall_avg_mshr_miss_latency::total 31287.148081                       # average overall mshr miss latency
system.cpu.dcache.ReadReq_avg_mshr_uncacheable_latency::cpu.data 221971.301020                       # average ReadReq mshr uncacheable latency
system.cpu.dcache.ReadReq_avg_mshr_uncacheable_latency::total 221971.301020                       # average ReadReq mshr uncacheable latency
system.cpu.dcache.overall_avg_mshr_uncacheable_latency::cpu.data 90111.587366                       # average overall mshr uncacheable latency
system.cpu.dcache.overall_avg_mshr_uncacheable_latency::total 90111.587366                       # average overall mshr uncacheable latency
system.cpu.icache.tags.pwrStateResidencyTicks::UNDEFINED 2446090960500                       # Cumulative time (in ticks) in various power states
system.cpu.icache.tags.replacements           2495371                       # number of replacements
system.cpu.icache.tags.tagsinuse           511.168858                       # Cycle average of tags in use
system.cpu.icache.tags.total_refs            88936321                       # Total number of references to valid blocks.
system.cpu.icache.tags.sampled_refs           2495371                       # Sample count of references to valid blocks.
system.cpu.icache.tags.avg_refs             35.640520                       # Average number of references to valid blocks.
system.cpu.icache.tags.warmup_cycle       39848052500                       # Cycle when the warmup percentage was hit.
system.cpu.icache.tags.occ_blocks::cpu.inst   511.168858                       # Average occupied blocks per requestor
system.cpu.icache.tags.occ_percent::cpu.inst     0.998377                       # Average percentage of cache occupancy
system.cpu.icache.tags.occ_percent::total     0.998377                       # Average percentage of cache occupancy
system.cpu.icache.tags.occ_task_id_blocks::1024          512                       # Occupied blocks per task id
system.cpu.icache.tags.age_task_id_blocks_1024::0          139                       # Occupied blocks per task id
system.cpu.icache.tags.age_task_id_blocks_1024::1           24                       # Occupied blocks per task id
system.cpu.icache.tags.age_task_id_blocks_1024::2          242                       # Occupied blocks per task id
system.cpu.icache.tags.age_task_id_blocks_1024::3          107                       # Occupied blocks per task id
system.cpu.icache.tags.occ_task_id_percent::1024            1                       # Percentage of cache occupancy per task id
system.cpu.icache.tags.tag_accesses         185568058                       # Number of tag accesses
system.cpu.icache.tags.data_accesses        185568058                       # Number of data accesses
system.cpu.icache.pwrStateResidencyTicks::UNDEFINED 2446090960500                       # Cumulative time (in ticks) in various power states
system.cpu.icache.ReadReq_hits::cpu.inst     89039882                       # number of ReadReq hits
system.cpu.icache.ReadReq_hits::total        89039882                       # number of ReadReq hits
system.cpu.icache.demand_hits::cpu.inst      89039882                       # number of demand (read+write) hits
system.cpu.icache.demand_hits::total         89039882                       # number of demand (read+write) hits
system.cpu.icache.overall_hits::cpu.inst     89039882                       # number of overall hits
system.cpu.icache.overall_hits::total        89039882                       # number of overall hits
system.cpu.icache.ReadReq_misses::cpu.inst      2496098                       # number of ReadReq misses
system.cpu.icache.ReadReq_misses::total       2496098                       # number of ReadReq misses
system.cpu.icache.demand_misses::cpu.inst      2496098                       # number of demand (read+write) misses
system.cpu.icache.demand_misses::total        2496098                       # number of demand (read+write) misses
system.cpu.icache.overall_misses::cpu.inst      2496098                       # number of overall misses
system.cpu.icache.overall_misses::total       2496098                       # number of overall misses
system.cpu.icache.ReadReq_miss_latency::cpu.inst  36386219500                       # number of ReadReq miss cycles
system.cpu.icache.ReadReq_miss_latency::total  36386219500                       # number of ReadReq miss cycles
system.cpu.icache.demand_miss_latency::cpu.inst  36386219500                       # number of demand (read+write) miss cycles
system.cpu.icache.demand_miss_latency::total  36386219500                       # number of demand (read+write) miss cycles
system.cpu.icache.overall_miss_latency::cpu.inst  36386219500                       # number of overall miss cycles
system.cpu.icache.overall_miss_latency::total  36386219500                       # number of overall miss cycles
system.cpu.icache.ReadReq_accesses::cpu.inst     91535980                       # number of ReadReq accesses(hits+misses)
system.cpu.icache.ReadReq_accesses::total     91535980                       # number of ReadReq accesses(hits+misses)
[...]
system.l2.overall_avg_mshr_uncacheable_latency::total 120420.782852                       # average overall mshr uncacheable latency
system.membus.snoop_filter.tot_requests         82689                       # Total number of requests made to the snoop filter.
system.membus.snoop_filter.hit_single_requests        46699                       # Number of requests hitting in the snoop filter with a single holder of the requested data.
system.membus.snoop_filter.hit_multi_requests           27                       # Number of requests hitting in the snoop filter with multiple (>1) holders of the requested data.
system.membus.snoop_filter.tot_snoops               0                       # Total number of snoops made to the snoop filter.
system.membus.snoop_filter.hit_single_snoops            0                       # Number of snoops hitting in the snoop filter with a single holder of the requested data.
system.membus.snoop_filter.hit_multi_snoops            0                       # Number of snoops hitting in the snoop filter with multiple (>1) holders of the requested data.
system.membus.pwrStateResidencyTicks::UNDEFINED   5680991000                       # Cumulative time (in ticks) in various power states
system.membus.trans_dist::ReadReq                 610                       # Transaction distribution
system.membus.trans_dist::ReadResp              10842                       # Transaction distribution
system.membus.trans_dist::WriteReq                463                       # Transaction distribution
system.membus.trans_dist::WriteResp               463                       # Transaction distribution
system.membus.trans_dist::WritebackDirty        27333                       # Transaction distribution
system.membus.trans_dist::CleanEvict            10039                       # Transaction distribution
system.membus.trans_dist::UpgradeReq               15                       # Transaction distribution
system.membus.trans_dist::ReadExReq             12410                       # Transaction distribution
system.membus.trans_dist::ReadExResp            12410                       # Transaction distribution
system.membus.trans_dist::ReadSharedReq         10232                       # Transaction distribution
system.membus.trans_dist::InvalidateReq         22656                       # Transaction distribution
system.membus.trans_dist::InvalidateResp         9308                       # Transaction distribution
system.membus.pkt_count_system.iocache.mem_side::system.mem_ctrls.port        45366                       # Packet count per connected master and slave (bytes)
system.membus.pkt_count_system.iocache.mem_side::total        45366                       # Packet count per connected master and slave (bytes)
system.membus.pkt_count_system.l2.mem_side::system.bridge.slave         2146                       # Packet count per connected master and slave (bytes)
system.membus.pkt_count_system.l2.mem_side::system.mem_ctrls.port        59934                       # Packet count per connected master and slave (bytes)
system.membus.pkt_count_system.l2.mem_side::total        62080                       # Packet count per connected master and slave (bytes)
system.membus.pkt_count::total                 107446                       # Packet count per connected master and slave (bytes)
system.membus.pkt_size_system.iocache.mem_side::system.mem_ctrls.port       724992                       # Cumulative packet size per connected master and slave (bytes)
system.membus.pkt_size_system.iocache.mem_side::total       724992                       # Cumulative packet size per connected master and slave (bytes)
system.membus.pkt_size_system.l2.mem_side::system.bridge.slave         1727                       # Cumulative packet size per connected master and slave (bytes)
system.membus.pkt_size_system.l2.mem_side::system.mem_ctrls.port       873344                       # Cumulative packet size per connected master and slave (bytes)
system.membus.pkt_size_system.l2.mem_side::total       875071                       # Cumulative packet size per connected master and slave (bytes)
system.membus.pkt_size::total                 1600063                       # Cumulative packet size per connected master and slave (bytes)
system.membus.snoops                             9335                       # Total snoops (count)
system.membus.snoopTraffic                        864                       # Total snoop traffic (bytes)
system.membus.snoop_fanout::samples             46386                       # Request fanout histogram
system.membus.snoop_fanout::mean             0.201246                       # Request fanout histogram
system.membus.snoop_fanout::stdev            0.400936                       # Request fanout histogram
system.membus.snoop_fanout::underflows              0      0.00%      0.00% # Request fanout histogram
system.membus.snoop_fanout::0                   37051     79.88%     79.88% # Request fanout histogram
system.membus.snoop_fanout::1                    9335     20.12%    100.00% # Request fanout histogram
system.membus.snoop_fanout::2                       0      0.00%    100.00% # Request fanout histogram
system.membus.snoop_fanout::overflows               0      0.00%    100.00% # Request fanout histogram
system.membus.snoop_fanout::min_value               0                       # Request fanout histogram
system.membus.snoop_fanout::max_value               1                       # Request fanout histogram
system.membus.snoop_fanout::total               46386                       # Request fanout histogram
system.membus.reqLayer0.occupancy             1830500                       # Layer occupancy (ticks)
system.membus.reqLayer0.utilization               0.0                       # Layer utilization (%)
system.membus.reqLayer1.occupancy           137377776                       # Layer occupancy (ticks)
system.membus.reqLayer1.utilization               2.4                       # Layer utilization (%)
system.membus.respLayer1.occupancy            9762532                       # Layer occupancy (ticks)
system.membus.respLayer1.utilization              0.2                       # Layer utilization (%)
system.membus.respLayer2.occupancy           76121750                       # Layer occupancy (ticks)
system.membus.respLayer2.utilization              1.3                       # Layer utilization (%)
system.membus.badaddr_responder.pwrStateResidencyTicks::UNDEFINED   5680991000                       # Cumulative time (in ticks) in various power states
system.tol2bus.snoop_filter.tot_requests       217488                       # Total number of requests made to the snoop filter.
system.tol2bus.snoop_filter.hit_single_requests       108748                       # Number of requests hitting in the snoop filter with a single holder of the requested data.
system.tol2bus.snoop_filter.hit_multi_requests          345                       # Number of requests hitting in the snoop filter with multiple (>1) holders of the requested data.
system.tol2bus.snoop_filter.tot_snoops            156                       # Total number of snoops made to the snoop filter.
system.tol2bus.snoop_filter.hit_single_snoops          156                       # Number of snoops hitting in the snoop filter with a single holder of the requested data.
system.tol2bus.snoop_filter.hit_multi_snoops            0                       # Number of snoops hitting in the snoop filter with multiple (>1) holders of the requested data.
system.tol2bus.pwrStateResidencyTicks::UNDEFINED   5680991000                       # Cumulative time (in ticks) in various power states
system.tol2bus.trans_dist::ReadReq                610                       # Transaction distribution
system.tol2bus.trans_dist::ReadResp             82099                       # Transaction distribution
system.tol2bus.trans_dist::WriteReq               463                       # Transaction distribution
system.tol2bus.trans_dist::WriteResp              463                       # Transaction distribution
system.tol2bus.trans_dist::WritebackDirty        41599                       # Transaction distribution
system.tol2bus.trans_dist::WritebackClean        58731                       # Transaction distribution
system.tol2bus.trans_dist::CleanEvict           23107                       # Transaction distribution
system.tol2bus.trans_dist::UpgradeReq               9                       # Transaction distribution
system.tol2bus.trans_dist::UpgradeResp              9                       # Transaction distribution
system.tol2bus.trans_dist::ReadExReq            27281                       # Transaction distribution
system.tol2bus.trans_dist::ReadExResp           27281                       # Transaction distribution
system.tol2bus.trans_dist::ReadCleanReq         58738                       # Transaction distribution
system.tol2bus.trans_dist::ReadSharedReq        22751                       # Transaction distribution
system.tol2bus.trans_dist::InvalidateReq         9308                       # Transaction distribution
system.tol2bus.pkt_count_system.cpu.icache.mem_side::system.l2.cpu_side       176205                       # Packet count per connected master and slave (bytes)
system.tol2bus.pkt_count_system.cpu.dcache.mem_side::system.l2.cpu_side       152206                       # Packet count per connected master and slave (bytes)
system.tol2bus.pkt_count::total                328411                       # Packet count per connected master and slave (bytes)
system.tol2bus.pkt_size_system.cpu.icache.mem_side::system.l2.cpu_side      3758944                       # Cumulative packet size per connected master and slave (bytes)
system.tol2bus.pkt_size_system.cpu.dcache.mem_side::system.l2.cpu_side      2784255                       # Cumulative packet size per connected master and slave (bytes)
system.tol2bus.pkt_size::total                6543199                       # Cumulative packet size per connected master and slave (bytes)
system.tol2bus.snoops                           24065                       # Total snoops (count)
system.tol2bus.snoopTraffic                    150592                       # Total snoop traffic (bytes)
system.tol2bus.snoop_fanout::samples           133861                       # Request fanout histogram
system.tol2bus.snoop_fanout::mean            0.003758                       # Request fanout histogram
system.tol2bus.snoop_fanout::stdev           0.061184                       # Request fanout histogram
system.tol2bus.snoop_fanout::underflows             0      0.00%      0.00% # Request fanout histogram
system.tol2bus.snoop_fanout::0                 133358     99.62%     99.62% # Request fanout histogram
system.tol2bus.snoop_fanout::1                    503      0.38%    100.00% # Request fanout histogram
system.tol2bus.snoop_fanout::2                      0      0.00%    100.00% # Request fanout histogram
system.tol2bus.snoop_fanout::overflows              0      0.00%    100.00% # Request fanout histogram
system.tol2bus.snoop_fanout::min_value              0                       # Request fanout histogram
system.tol2bus.snoop_fanout::max_value              1                       # Request fanout histogram
system.tol2bus.snoop_fanout::total             133861                       # Request fanout histogram
system.tol2bus.reqLayer0.occupancy          157338500                       # Layer occupancy (ticks)
system.tol2bus.reqLayer0.utilization              2.8                       # Layer utilization (%)
system.tol2bus.snoopLayer0.occupancy            34485                       # Layer occupancy (ticks)
system.tol2bus.snoopLayer0.utilization            0.0                       # Layer utilization (%)
system.tol2bus.respLayer0.occupancy          58738000                       # Layer occupancy (ticks)
system.tol2bus.respLayer0.utilization             1.0                       # Layer utilization (%)
system.tol2bus.respLayer1.occupancy          50851000                       # Layer occupancy (ticks)
system.tol2bus.respLayer1.utilization             0.9                       # Layer utilization (%)
system.tsunami.backdoor.pwrStateResidencyTicks::UNDEFINED   5680991000                       # Cumulative time (in ticks) in various power states
system.tsunami.cchip.pwrStateResidencyTicks::UNDEFINED   5680991000                       # Cumulative time (in ticks) in various power states
system.tsunami.pchip.pwrStateResidencyTicks::UNDEFINED   5680991000                       # Cumulative time (in ticks) in various power states
system.tsunami.ethernet.pwrStateResidencyTicks::UNDEFINED   5680991000                       # Cumulative time (in ticks) in various power states
system.tsunami.ethernet.descDMAReads                0                       # Number of descriptors the device read w/ DMA
system.tsunami.ethernet.descDMAWrites               0                       # Number of descriptors the device wrote w/ DMA
system.tsunami.ethernet.descDmaReadBytes            0                       # number of descriptor bytes read w/ DMA
system.tsunami.ethernet.descDmaWriteBytes            0                       # number of descriptor bytes write w/ DMA
system.tsunami.ethernet.postedSwi                   0                       # number of software interrupts posted to CPU
system.tsunami.ethernet.coalescedSwi              nan                       # average number of Swi's coalesced into each post
system.tsunami.ethernet.totalSwi                    0                       # total number of Swi written to ISR
system.tsunami.ethernet.postedRxIdle                0                       # number of rxIdle interrupts posted to CPU
system.tsunami.ethernet.coalescedRxIdle           nan                       # average number of RxIdle's coalesced into each post
system.tsunami.ethernet.totalRxIdle                 0                       # total number of RxIdle written to ISR
system.tsunami.ethernet.postedRxOk                  0                       # number of RxOk interrupts posted to CPU
system.tsunami.ethernet.coalescedRxOk             nan                       # average number of RxOk's coalesced into each post
system.tsunami.ethernet.totalRxOk                   0                       # total number of RxOk written to ISR
system.tsunami.ethernet.postedRxDesc                0                       # number of RxDesc interrupts posted to CPU
system.tsunami.ethernet.coalescedRxDesc           nan                       # average number of RxDesc's coalesced into each post
system.tsunami.ethernet.totalRxDesc                 0                       # total number of RxDesc written to ISR
system.tsunami.ethernet.postedTxOk                  0                       # number of TxOk interrupts posted to CPU
system.tsunami.ethernet.coalescedTxOk             nan                       # average number of TxOk's coalesced into each post
system.tsunami.ethernet.totalTxOk                   0                       # total number of TxOk written to ISR
system.tsunami.ethernet.postedTxIdle                0                       # number of TxIdle interrupts posted to CPU
system.tsunami.ethernet.coalescedTxIdle           nan                       # average number of TxIdle's coalesced into each post
system.tsunami.ethernet.totalTxIdle                 0                       # total number of TxIdle written to ISR
system.tsunami.ethernet.postedTxDesc                0                       # number of TxDesc interrupts posted to CPU
system.tsunami.ethernet.coalescedTxDesc           nan                       # average number of TxDesc's coalesced into each post
system.tsunami.ethernet.totalTxDesc                 0                       # total number of TxDesc written to ISR
system.tsunami.ethernet.postedRxOrn                 0                       # number of RxOrn posted to CPU
system.tsunami.ethernet.coalescedRxOrn            nan                       # average number of RxOrn's coalesced into each post
system.tsunami.ethernet.totalRxOrn                  0                       # total number of RxOrn written to ISR
system.tsunami.ethernet.coalescedTotal            nan                       # average number of interrupts coalesced into each post
system.tsunami.ethernet.postedInterrupts            0                       # number of posts to CPU
system.tsunami.ethernet.droppedPackets              0                       # number of packets dropped
system.tsunami.fake_OROM.pwrStateResidencyTicks::UNDEFINED   5680991000                       # Cumulative time (in ticks) in various power states
system.tsunami.fake_ata0.pwrStateResidencyTicks::UNDEFINED   5680991000                       # Cumulative time (in ticks) in various power states
system.tsunami.fake_ata1.pwrStateResidencyTicks::UNDEFINED   5680991000                       # Cumulative time (in ticks) in various power states
system.tsunami.fake_pnp_addr.pwrStateResidencyTicks::UNDEFINED   5680991000                       # Cumulative time (in ticks) in various power states
system.tsunami.fake_pnp_read0.pwrStateResidencyTicks::UNDEFINED   5680991000                       # Cumulative time (in ticks) in various power states
system.tsunami.fake_pnp_read1.pwrStateResidencyTicks::UNDEFINED   5680991000                       # Cumulative time (in ticks) in various power states
system.tsunami.fake_pnp_read2.pwrStateResidencyTicks::UNDEFINED   5680991000                       # Cumulative time (in ticks) in various power states
system.tsunami.fake_pnp_read3.pwrStateResidencyTicks::UNDEFINED   5680991000                       # Cumulative time (in ticks) in various power states
system.tsunami.fake_pnp_read4.pwrStateResidencyTicks::UNDEFINED   5680991000                       # Cumulative time (in ticks) in various power states
system.tsunami.fake_pnp_read5.pwrStateResidencyTicks::UNDEFINED   5680991000                       # Cumulative time (in ticks) in various power states
system.tsunami.fake_pnp_read6.pwrStateResidencyTicks::UNDEFINED   5680991000                       # Cumulative time (in ticks) in various power states
system.tsunami.fake_pnp_read7.pwrStateResidencyTicks::UNDEFINED   5680991000                       # Cumulative time (in ticks) in various power states
system.tsunami.fake_pnp_write.pwrStateResidencyTicks::UNDEFINED   5680991000                       # Cumulative time (in ticks) in various power states
system.tsunami.fake_ppc.pwrStateResidencyTicks::UNDEFINED   5680991000                       # Cumulative time (in ticks) in various power states
system.tsunami.fake_sm_chip.pwrStateResidencyTicks::UNDEFINED   5680991000                       # Cumulative time (in ticks) in various power states
system.tsunami.fake_uart1.pwrStateResidencyTicks::UNDEFINED   5680991000                       # Cumulative time (in ticks) in various power states
system.tsunami.fake_uart2.pwrStateResidencyTicks::UNDEFINED   5680991000                       # Cumulative time (in ticks) in various power states
system.tsunami.fake_uart3.pwrStateResidencyTicks::UNDEFINED   5680991000                       # Cumulative time (in ticks) in various power states
system.tsunami.fake_uart4.pwrStateResidencyTicks::UNDEFINED   5680991000                       # Cumulative time (in ticks) in various power states
system.tsunami.fb.pwrStateResidencyTicks::UNDEFINED   5680991000                       # Cumulative time (in ticks) in various power states
system.tsunami.ide.pwrStateResidencyTicks::UNDEFINED   5680991000                       # Cumulative time (in ticks) in various power states
system.tsunami.io.pwrStateResidencyTicks::UNDEFINED   5680991000                       # Cumulative time (in ticks) in various power states
system.tsunami.uart.pwrStateResidencyTicks::UNDEFINED   5680991000                       # Cumulative time (in ticks) in various power states

---------- End Simulation Statistics   ----------
