---------- Begin Simulation Statistics ----------
sim_seconds                                  0.005681                       # Number of seconds simulated
sim_ticks                                  5680991000                       # Number of ticks simulated
system.cpu.dcache.tags.replacements             50005                       # number of replacements
system.cpu.dcache.tags.total_refs              560894                       # Total number of references to valid blocks.
system.cpu.dcache.tags.avg_refs             10.991671                       # Average number of references to valid blocks.
system.cpu.dcache.tags.occ_percent::total            1                       # Average percentage of cache occupancy
system.cpu.dcache.tags.data_accesses         18952341                       # Number of data accesses
system.cpu.dcache.ReadReq_hits::total          303590                       # number of ReadReq hits
system.cpu.dcache.WriteReq_hits::total         225376                       # number of WriteReq hits
system.cpu.dcache.overall_hits::total          528966                       # number of overall hits
system.cpu.dcache.ReadReq_misses::total         22060                       # number of ReadReq misses
system.cpu.dcache.overall_misses::total         49350                       # number of overall misses
system.cpu.dcache.ReadReq_miss_rate::total     0.067741                       # miss rate for ReadReq accesses
system.cpu.dcache.WriteReq_miss_rate::total     0.108008                       # miss rate for WriteReq accesses
system.cpu.dcache.overall_miss_rate::total     0.085334                       # miss rate for overall accesses
system.cpu.dcache.writebacks::total             36922                       # number of writebacks
system.l2.tags.replacements                     14701                       # number of replacements
system.l2.tags.total_refs                     2076718                       # Total number of references to valid blocks.
system.l2.tags.avg_refs                     45.066687                       # Average number of references to valid blocks.
system.l2.tags.occ_percent::total            0.873014                       # Average percentage of cache occupancy
system.l2.tags.data_accesses                  1761111                       # Number of data accesses
system.l2.overall_hits::total                   86119                       # number of overall hits
system.l2.overall_misses::total                 22622                       # number of overall misses
system.l2.overall_miss_rate::total           0.208036                       # miss rate for overall accesses
system.l2.writebacks::total                      4677                       # number of writebacks
---------- End Simulation Statistics   ----------
