
---------- Begin Simulation Statistics ----------
sim_seconds                                  2.510340                       # Number of seconds simulated
sim_ticks                                2510339838500                       # Number of ticks simulated
final_tick                               2510339838500                       # Number of ticks from beginning of simulation (restored from checkpoints and never reset)
sim_freq                                 1000000000000                       # Frequency of simulated ticks
host_inst_rate                                 149387                       # Simulator instruction rate (inst/s)
host_op_rate                                   149387                       # Simulator op (including micro ops) rate (op/s)
host_tick_rate                             4093508088                       # Simulator tick rate (ticks/s)
host_mem_usage                                 743276                       # Number of bytes of host memory used
host_seconds                                   613.25                       # Real time elapsed on the host
sim_insts                                    91611157                       # Number of instructions simulated
sim_ops                                      91611157                       # Number of ops (including micro ops) simulated
system.voltage_domain.voltage                       1                       # Voltage in Volts
system.clk_domain.clock                          1000                       # Clock period in ticks
system.mem_ctrls.pwrStateResidencyTicks::UNDEFINED 2510339838500                       # Cumulative time (in ticks) in various power states
system.mem_ctrls.bytes_read::cpu.inst         1074016                       # Number of bytes read from this memory
system.mem_ctrls.bytes_read::cpu.data        18301600                       # Number of bytes read from this memory
system.mem_ctrls.bytes_read::tsunami.ide         4048                       # Number of bytes read from this memory
system.mem_ctrls.bytes_read::total           19379664                       # Number of bytes read from this memory
system.mem_ctrls.bytes_inst_read::cpu.inst      1074016                       # Number of instructions bytes read from this memory
system.mem_ctrls.bytes_inst_read::total       1074016                       # Number of instructions bytes read from this memory
system.mem_ctrls.bytes_written::writebacks     16393312                       # Number of bytes written to this memory
system.mem_ctrls.bytes_written::total        16393312                       # Number of bytes written to this memory
system.mem_ctrls.num_reads::cpu.inst            67126                       # Number of read requests responded to by this memory
system.mem_ctrls.num_reads::cpu.data          1143850                       # Number of read requests responded to by this memory
system.mem_ctrls.num_reads::tsunami.ide           253                       # Number of read requests responded to by this memory
system.mem_ctrls.num_reads::total             1211229                       # Number of read requests responded to by this memory
system.mem_ctrls.num_writes::writebacks       1024582                       # Number of write requests responded to by this memory
system.mem_ctrls.num_writes::total            1024582                       # Number of write requests responded to by this memory
system.mem_ctrls.bw_read::cpu.inst             427837                       # Total read bandwidth from this memory (bytes/s)
system.mem_ctrls.bw_read::cpu.data            7290487                       # Total read bandwidth from this memory (bytes/s)
system.mem_ctrls.bw_read::tsunami.ide            1613                       # Total read bandwidth from this memory (bytes/s)
system.mem_ctrls.bw_read::total               7719936                       # Total read bandwidth from this memory (bytes/s)
system.mem_ctrls.bw_inst_read::cpu.inst        427837                       # Instruction read bandwidth from this memory (bytes/s)
system.mem_ctrls.bw_inst_read::total           427837                       # Instruction read bandwidth from this memory (bytes/s)
system.mem_ctrls.bw_write::writebacks         6530316                       # Write bandwidth from this memory (bytes/s)
system.mem_ctrls.bw_write::total              6530316                       # Write bandwidth from this memory (bytes/s)
system.mem_ctrls.bw_total::writebacks         6530316                       # Total bandwidth to/from this memory (bytes/s)
system.mem_ctrls.bw_total::cpu.inst            427837                       # Total bandwidth to/from this memory (bytes/s)
system.mem_ctrls.bw_total::cpu.data           7290487                       # Total bandwidth to/from this memory (bytes/s)
system.mem_ctrls.bw_total::tsunami.ide           1613                       # Total bandwidth to/from this memory (bytes/s)
system.mem_ctrls.bw_total::total             14250252                       # Total bandwidth to/from this memory (bytes/s)
system.mem_ctrls.readReqs                     1211229                       # Number of read requests accepted
system.mem_ctrls.writeReqs                    1024582                       # Number of write requests accepted
system.mem_ctrls.readBursts                   1211229                       # Number of DRAM read bursts, including those serviced by the write queue
system.mem_ctrls.writeBursts                  1024582                       # Number of DRAM write bursts, including those merged in the write queue
system.mem_ctrls.bytesReadDRAM               77502912                       # Total number of bytes read from DRAM
system.mem_ctrls.bytesReadWrQ                   15744                       # Total number of bytes read from write queue
system.mem_ctrls.bytesWritten                39667328                       # Total number of bytes written to DRAM
system.mem_ctrls.bytesReadSys                19379664                       # Total read bytes from the system interface side
system.mem_ctrls.bytesWrittenSys             16393312                       # Total written bytes from the system interface side
system.mem_ctrls.servicedByWrQ                    246                       # Number of DRAM read bursts serviced by the write queue
system.mem_ctrls.mergedWrBursts                404753                       # Number of DRAM write bursts merged with an existing one
system.mem_ctrls.neitherReadNorWriteReqs            0                       # Number of requests that are neither read nor write
system.mem_ctrls.perBankRdBursts::0             75104                       # Per bank write bursts
system.mem_ctrls.perBankRdBursts::1             75784                       # Per bank write bursts
system.mem_ctrls.perBankRdBursts::2             72371                       # Per bank write bursts
system.mem_ctrls.perBankRdBursts::3             73476                       # Per bank write bursts
system.mem_ctrls.perBankRdBursts::4             76457                       # Per bank write bursts
system.mem_ctrls.perBankRdBursts::5             77966                       # Per bank write bursts
system.mem_ctrls.perBankRdBursts::6             72449                       # Per bank write bursts
system.mem_ctrls.perBankRdBursts::7             76797                       # Per bank write bursts
system.mem_ctrls.perBankRdBursts::8             78329                       # Per bank write bursts
system.mem_ctrls.perBankRdBursts::9             72783                       # Per bank write bursts
system.mem_ctrls.perBankRdBursts::10            74425                       # Per bank write bursts
system.mem_ctrls.perBankRdBursts::11            80209                       # Per bank write bursts
system.mem_ctrls.perBankRdBursts::12            81199                       # Per bank write bursts
system.mem_ctrls.perBankRdBursts::13            75232                       # Per bank write bursts
system.mem_ctrls.perBankRdBursts::14            72720                       # Per bank write bursts
system.mem_ctrls.perBankRdBursts::15            75682                       # Per bank write bursts
system.mem_ctrls.perBankWrBursts::0             38360                       # Per bank write bursts
system.mem_ctrls.perBankWrBursts::1             40433                       # Per bank write bursts
system.mem_ctrls.perBankWrBursts::2             37586                       # Per bank write bursts
system.mem_ctrls.perBankWrBursts::3             39101                       # Per bank write bursts
system.mem_ctrls.perBankWrBursts::4             39315                       # Per bank write bursts
system.mem_ctrls.perBankWrBursts::5             40789                       # Per bank write bursts
system.mem_ctrls.perBankWrBursts::6             37523                       # Per bank write bursts
system.mem_ctrls.perBankWrBursts::7             39794                       # Per bank write bursts
system.mem_ctrls.perBankWrBursts::8             39274                       # Per bank write bursts
system.mem_ctrls.perBankWrBursts::9             37304                       # Per bank write bursts
system.mem_ctrls.perBankWrBursts::10            37847                       # Per bank write bursts
system.mem_ctrls.perBankWrBursts::11            39325                       # Per bank write bursts
system.mem_ctrls.perBankWrBursts::12            39087                       # Per bank write bursts
system.mem_ctrls.perBankWrBursts::13            37348                       # Per bank write bursts
system.mem_ctrls.perBankWrBursts::14            37495                       # Per bank write bursts
system.mem_ctrls.perBankWrBursts::15            39221                       # Per bank write bursts
system.mem_ctrls.numRdRetry                         0                       # Number of times read queue was full causing retry
system.mem_ctrls.numWrRetry                         0                       # Number of times write queue was full causing retry
system.mem_ctrls.totGap                  2510335600500                       # Total gap between requests
system.mem_ctrls.readPktSize::0                     0                       # Read request sizes (log2)
system.mem_ctrls.readPktSize::1                     0                       # Read request sizes (log2)
system.mem_ctrls.readPktSize::2                     0                       # Read request sizes (log2)
system.mem_ctrls.readPktSize::3                     0                       # Read request sizes (log2)
system.mem_ctrls.readPktSize::4               1211229                       # Read request sizes (log2)
system.mem_ctrls.readPktSize::5                     0                       # Read request sizes (log2)
system.mem_ctrls.readPktSize::6                     0                       # Read request sizes (log2)
system.mem_ctrls.writePktSize::0                    0                       # Write request sizes (log2)
system.mem_ctrls.writePktSize::1                    0                       # Write request sizes (log2)
system.mem_ctrls.writePktSize::2                    0                       # Write request sizes (log2)
system.mem_ctrls.writePktSize::3                    0                       # Write request sizes (log2)
system.mem_ctrls.writePktSize::4              1024582                       # Write request sizes (log2)
system.mem_ctrls.writePktSize::5                    0                       # Write request sizes (log2)
system.mem_ctrls.writePktSize::6                    0                       # Write request sizes (log2)
system.mem_ctrls.rdQLenPdf::0                 1210723                       # What read queue length does an incoming req see
system.mem_ctrls.rdQLenPdf::1                       8                       # What read queue length does an incoming req see
system.mem_ctrls.rdQLenPdf::2                       8                       # What read queue length does an incoming req see
system.mem_ctrls.rdQLenPdf::3                       8                       # What read queue length does an incoming req see
system.mem_ctrls.rdQLenPdf::4                      14                       # What read queue length does an incoming req see
system.mem_ctrls.rdQLenPdf::5                      18                       # What read queue length does an incoming req see
system.mem_ctrls.rdQLenPdf::6                      16                       # What read queue length does an incoming req see
system.mem_ctrls.rdQLenPdf::7                      19                       # What read queue length does an incoming req see
system.mem_ctrls.rdQLenPdf::8                      33                       # What read queue length does an incoming req see
system.mem_ctrls.rdQLenPdf::9                      66                       # What read queue length does an incoming req see
system.mem_ctrls.rdQLenPdf::10                     28                       # What read queue length does an incoming req see
system.mem_ctrls.rdQLenPdf::11                     13                       # What read queue length does an incoming req see
system.mem_ctrls.rdQLenPdf::12                      9                       # What read queue length does an incoming req see
system.mem_ctrls.rdQLenPdf::13                      5                       # What read queue length does an incoming req see
system.mem_ctrls.rdQLenPdf::14                      2                       # What read queue length does an incoming req see
system.mem_ctrls.rdQLenPdf::15                      3                       # What read queue length does an incoming req see
system.mem_ctrls.rdQLenPdf::16                      3                       # What read queue length does an incoming req see
system.mem_ctrls.rdQLenPdf::17                      2                       # What read queue length does an incoming req see
system.mem_ctrls.rdQLenPdf::18                      2                       # What read queue length does an incoming req see
system.mem_ctrls.rdQLenPdf::19                      2                       # What read queue length does an incoming req see
system.mem_ctrls.rdQLenPdf::20                      1                       # What read queue length does an incoming req see
system.mem_ctrls.rdQLenPdf::21                      0                       # What read queue length does an incoming req see
system.mem_ctrls.rdQLenPdf::22                      0                       # What read queue length does an incoming req see
system.mem_ctrls.rdQLenPdf::23                      0                       # What read queue length does an incoming req see
system.mem_ctrls.rdQLenPdf::24                      0                       # What read queue length does an incoming req see
system.mem_ctrls.rdQLenPdf::25                      0                       # What read queue length does an incoming req see
system.mem_ctrls.rdQLenPdf::26                      0                       # What read queue length does an incoming req see
system.mem_ctrls.rdQLenPdf::27                      0                       # What read queue length does an incoming req see
system.mem_ctrls.rdQLenPdf::28                      0                       # What read queue length does an incoming req see
system.mem_ctrls.rdQLenPdf::29                      0                       # What read queue length does an incoming req see
system.mem_ctrls.rdQLenPdf::30                      0                       # What read queue length does an incoming req see
system.mem_ctrls.rdQLenPdf::31                      0                       # What read queue length does an incoming req see
system.mem_ctrls.wrQLenPdf::0                       1                       # What write queue length does an incoming req see
system.mem_ctrls.wrQLenPdf::1                       1                       # What write queue length does an incoming req see
system.mem_ctrls.wrQLenPdf::2                       1                       # What write queue length does an incoming req see
system.mem_ctrls.wrQLenPdf::3                       1                       # What write queue length does an incoming req see
system.mem_ctrls.wrQLenPdf::4                       1                       # What write queue length does an incoming req see
system.mem_ctrls.wrQLenPdf::5                       1                       # What write queue length does an incoming req see
system.mem_ctrls.wrQLenPdf::6                       1                       # What write queue length does an incoming req see
system.mem_ctrls.wrQLenPdf::7                       1                       # What write queue length does an incoming req see
system.mem_ctrls.wrQLenPdf::8                       1                       # What write queue length does an incoming req see
system.mem_ctrls.wrQLenPdf::9                       1                       # What write queue length does an incoming req see
system.mem_ctrls.wrQLenPdf::10                      1                       # What write queue length does an incoming req see
system.mem_ctrls.wrQLenPdf::11                      1                       # What write queue length does an incoming req see
system.mem_ctrls.wrQLenPdf::12                      1                       # What write queue length does an incoming req see
system.mem_ctrls.wrQLenPdf::13                      1                       # What write queue length does an incoming req see
system.mem_ctrls.wrQLenPdf::14                      1                       # What write queue length does an incoming req see
system.mem_ctrls.wrQLenPdf::15                   5814                       # What write queue length does an incoming req see
system.mem_ctrls.wrQLenPdf::16                   7485                       # What write queue length does an incoming req see
system.mem_ctrls.wrQLenPdf::17                  38158                       # What write queue length does an incoming req see
system.mem_ctrls.wrQLenPdf::18                  37965                       # What write queue length does an incoming req see
system.mem_ctrls.wrQLenPdf::19                  38196                       # What write queue length does an incoming req see
system.mem_ctrls.wrQLenPdf::20                  37931                       # What write queue length does an incoming req see
system.mem_ctrls.wrQLenPdf::21                  37744                       # What write queue length does an incoming req see
system.mem_ctrls.wrQLenPdf::22                  37536                       # What write queue length does an incoming req see
system.mem_ctrls.wrQLenPdf::23                  37539                       # What write queue length does an incoming req see
system.mem_ctrls.wrQLenPdf::24                  37572                       # What write queue length does an incoming req see
system.mem_ctrls.wrQLenPdf::25                  38131                       # What write queue length does an incoming req see
system.mem_ctrls.wrQLenPdf::26                  37920                       # What write queue length does an incoming req see
system.mem_ctrls.wrQLenPdf::27                  37748                       # What write queue length does an incoming req see
system.mem_ctrls.wrQLenPdf::28                  37717                       # What write queue length does an incoming req see
system.mem_ctrls.wrQLenPdf::29                  37526                       # What write queue length does an incoming req see
system.mem_ctrls.wrQLenPdf::30                  37465                       # What write queue length does an incoming req see
system.mem_ctrls.wrQLenPdf::31                  37508                       # What write queue length does an incoming req see
system.mem_ctrls.wrQLenPdf::32                  37395                       # What write queue length does an incoming req see
system.mem_ctrls.wrQLenPdf::33                    209                       # What write queue length does an incoming req see
system.mem_ctrls.wrQLenPdf::34                    194                       # What write queue length does an incoming req see
system.mem_ctrls.wrQLenPdf::35                    190                       # What write queue length does an incoming req see
system.mem_ctrls.wrQLenPdf::36                    181                       # What write queue length does an incoming req see
system.mem_ctrls.wrQLenPdf::37                    145                       # What write queue length does an incoming req see
system.mem_ctrls.wrQLenPdf::38                    141                       # What write queue length does an incoming req see
system.mem_ctrls.wrQLenPdf::39                    131                       # What write queue length does an incoming req see
system.mem_ctrls.wrQLenPdf::40                    114                       # What write queue length does an incoming req see
system.mem_ctrls.wrQLenPdf::41                    110                       # What write queue length does an incoming req see
system.mem_ctrls.wrQLenPdf::42                    103                       # What write queue length does an incoming req see
system.mem_ctrls.wrQLenPdf::43                    125                       # What write queue length does an incoming req see
system.mem_ctrls.wrQLenPdf::44                    115                       # What write queue length does an incoming req see
system.mem_ctrls.wrQLenPdf::45                     94                       # What write queue length does an incoming req see
system.mem_ctrls.wrQLenPdf::46                     75                       # What write queue length does an incoming req see
system.mem_ctrls.wrQLenPdf::47                     70                       # What write queue length does an incoming req see
system.mem_ctrls.wrQLenPdf::48                     65                       # What write queue length does an incoming req see
system.mem_ctrls.wrQLenPdf::49                     56                       # What write queue length does an incoming req see
system.mem_ctrls.wrQLenPdf::50                     62                       # What write queue length does an incoming req see
system.mem_ctrls.wrQLenPdf::51                     68                       # What write queue length does an incoming req see
system.mem_ctrls.wrQLenPdf::52                     72                       # What write queue length does an incoming req see
system.mem_ctrls.wrQLenPdf::53                     52                       # What write queue length does an incoming req see
system.mem_ctrls.wrQLenPdf::54                     47                       # What write queue length does an incoming req see
system.mem_ctrls.wrQLenPdf::55                     36                       # What write queue length does an incoming req see
system.mem_ctrls.wrQLenPdf::56                      7                       # What write queue length does an incoming req see
system.mem_ctrls.wrQLenPdf::57                      2                       # What write queue length does an incoming req see
system.mem_ctrls.wrQLenPdf::58                      0                       # What write queue length does an incoming req see
system.mem_ctrls.wrQLenPdf::59                      0                       # What write queue length does an incoming req see
system.mem_ctrls.wrQLenPdf::60                      0                       # What write queue length does an incoming req see
system.mem_ctrls.wrQLenPdf::61                      0                       # What write queue length does an incoming req see
system.mem_ctrls.wrQLenPdf::62                      0                       # What write queue length does an incoming req see
system.mem_ctrls.wrQLenPdf::63                      0                       # What write queue length does an incoming req see
system.mem_ctrls.bytesPerActivate::samples       273956                       # Bytes accessed per row activation
system.mem_ctrls.bytesPerActivate::mean    427.697294                       # Bytes accessed per row activation
system.mem_ctrls.bytesPerActivate::gmean   252.290707                       # Bytes accessed per row activation
system.mem_ctrls.bytesPerActivate::stdev   386.151360                       # Bytes accessed per row activation
system.mem_ctrls.bytesPerActivate::0-127        77693     28.36%     28.36% # Bytes accessed per row activation
system.mem_ctrls.bytesPerActivate::128-255        53835     19.65%     48.01% # Bytes accessed per row activation
system.mem_ctrls.bytesPerActivate::256-383        26952      9.84%     57.85% # Bytes accessed per row activation
system.mem_ctrls.bytesPerActivate::384-511        16793      6.13%     63.98% # Bytes accessed per row activation
system.mem_ctrls.bytesPerActivate::512-639        12831      4.68%     68.66% # Bytes accessed per row activation
system.mem_ctrls.bytesPerActivate::640-767         8587      3.13%     71.80% # Bytes accessed per row activation
system.mem_ctrls.bytesPerActivate::768-895         7541      2.75%     74.55% # Bytes accessed per row activation
system.mem_ctrls.bytesPerActivate::896-1023         7039      2.57%     77.12% # Bytes accessed per row activation
system.mem_ctrls.bytesPerActivate::1024-1151        62685     22.88%    100.00% # Bytes accessed per row activation
system.mem_ctrls.bytesPerActivate::total       273956                       # Bytes accessed per row activation
system.mem_ctrls.rdPerTurnAround::samples        37238                       # Reads before turning the bus around for writes
system.mem_ctrls.rdPerTurnAround::mean      32.519496                       # Reads before turning the bus around for writes
system.mem_ctrls.rdPerTurnAround::stdev    487.574934                       # Reads before turning the bus around for writes
system.mem_ctrls.rdPerTurnAround::0-4095        37235     99.99%     99.99% # Reads before turning the bus around for writes
system.mem_ctrls.rdPerTurnAround::24576-28671            1      0.00%     99.99% # Reads before turning the bus around for writes
system.mem_ctrls.rdPerTurnAround::28672-32767            1      0.00%    100.00% # Reads before turning the bus around for writes
system.mem_ctrls.rdPerTurnAround::81920-86015            1      0.00%    100.00% # Reads before turning the bus around for writes
system.mem_ctrls.rdPerTurnAround::total         37238                       # Reads before turning the bus around for writes
system.mem_ctrls.wrPerTurnAround::samples        37238                       # Writes before turning the bus around for reads
system.mem_ctrls.wrPerTurnAround::mean      16.644342                       # Writes before turning the bus around for reads
system.mem_ctrls.wrPerTurnAround::gmean     16.541120                       # Writes before turning the bus around for reads
system.mem_ctrls.wrPerTurnAround::stdev      2.355435                       # Writes before turning the bus around for reads
system.mem_ctrls.wrPerTurnAround::16-17         31378     84.26%     84.26% # Writes before turning the bus around for reads
system.mem_ctrls.wrPerTurnAround::18-19          4195     11.27%     95.53% # Writes before turning the bus around for reads
system.mem_ctrls.wrPerTurnAround::20-21           502      1.35%     96.88% # Writes before turning the bus around for reads
system.mem_ctrls.wrPerTurnAround::22-23           376      1.01%     97.89% # Writes before turning the bus around for reads
system.mem_ctrls.wrPerTurnAround::24-25           328      0.88%     98.77% # Writes before turning the bus around for reads
system.mem_ctrls.wrPerTurnAround::26-27           263      0.71%     99.47% # Writes before turning the bus around for reads
system.mem_ctrls.wrPerTurnAround::28-29            65      0.17%     99.65% # Writes before turning the bus around for reads
system.mem_ctrls.wrPerTurnAround::30-31            17      0.05%     99.69% # Writes before turning the bus around for reads
system.mem_ctrls.wrPerTurnAround::32-33            13      0.03%     99.73% # Writes before turning the bus around for reads
system.mem_ctrls.wrPerTurnAround::34-35             8      0.02%     99.75% # Writes before turning the bus around for reads
system.mem_ctrls.wrPerTurnAround::36-37             5      0.01%     99.76% # Writes before turning the bus around for reads
system.mem_ctrls.wrPerTurnAround::38-39             2      0.01%     99.77% # Writes before turning the bus around for reads
system.mem_ctrls.wrPerTurnAround::40-41            13      0.03%     99.80% # Writes before turning the bus around for reads
system.mem_ctrls.wrPerTurnAround::42-43            10      0.03%     99.83% # Writes before turning the bus around for reads
system.mem_ctrls.wrPerTurnAround::44-45             7      0.02%     99.85% # Writes before turning the bus around for reads
system.mem_ctrls.wrPerTurnAround::46-47             6      0.02%     99.87% # Writes before turning the bus around for reads
system.mem_ctrls.wrPerTurnAround::48-49             5      0.01%     99.88% # Writes before turning the bus around for reads
system.mem_ctrls.wrPerTurnAround::50-51             7      0.02%     99.90% # Writes before turning the bus around for reads
system.mem_ctrls.wrPerTurnAround::52-53            14      0.04%     99.94% # Writes before turning the bus around for reads
system.mem_ctrls.wrPerTurnAround::54-55            14      0.04%     99.97% # Writes before turning the bus around for reads
system.mem_ctrls.wrPerTurnAround::56-57             5      0.01%     99.99% # Writes before turning the bus around for reads
system.mem_ctrls.wrPerTurnAround::58-59             1      0.00%     99.99% # Writes before turning the bus around for reads
system.mem_ctrls.wrPerTurnAround::62-63             2      0.01%     99.99% # Writes before turning the bus around for reads
system.mem_ctrls.wrPerTurnAround::64-65             1      0.00%    100.00% # Writes before turning the bus around for reads
system.mem_ctrls.wrPerTurnAround::90-91             1      0.00%    100.00% # Writes before turning the bus around for reads
system.mem_ctrls.wrPerTurnAround::total         37238                       # Writes before turning the bus around for reads
system.mem_ctrls.totQLat                  19421781460                       # Total ticks spent queuing
system.mem_ctrls.totMemAccLat             42127712710                       # Total ticks spent from burst creation until serviced by the DRAM
system.mem_ctrls.totBusLat                 6054915000                       # Total ticks spent in databus transfers
system.mem_ctrls.avgQLat                     16038.03                       # Average queueing delay per DRAM burst
system.mem_ctrls.avgBusLat                    5000.00                       # Average bus latency per DRAM burst
system.mem_ctrls.avgMemAccLat                34788.03                       # Average memory access latency per DRAM burst
system.mem_ctrls.avgRdBW                        30.87                       # Average DRAM read bandwidth in MiByte/s
system.mem_ctrls.avgWrBW                        15.80                       # Average achieved write bandwidth in MiByte/s
system.mem_ctrls.avgRdBWSys                      7.72                       # Average system read bandwidth in MiByte/s
system.mem_ctrls.avgWrBWSys                      6.53                       # Average system write bandwidth in MiByte/s
system.mem_ctrls.peakBW                      12800.00                       # Theoretical peak bandwidth in MiByte/s
system.mem_ctrls.busUtil                         0.36                       # Data bus utilization in percentage
system.mem_ctrls.busUtilRead                     0.24                       # Data bus utilization in percentage for reads
system.mem_ctrls.busUtilWrite                    0.12                       # Data bus utilization in percentage for writes
system.mem_ctrls.avgRdQLen                       1.00                       # Average read queue length when enqueuing
system.mem_ctrls.avgWrQLen                      26.88                       # Average write queue length when enqueuing
system.mem_ctrls.readRowHits                  1081611                       # Number of row buffer hits during reads
system.mem_ctrls.writeRowHits                  475218                       # Number of row buffer hits during writes
system.mem_ctrls.readRowHitRate                 89.32                       # Row buffer hit rate for reads
system.mem_ctrls.writeRowHitRate                76.67                       # Row buffer hit rate for writes
system.mem_ctrls.avgGap                    1122785.24                       # Average gap between requests
system.mem_ctrls.pageHitRate                    85.03                       # Row buffer hit rate, read and write combined
system.mem_ctrls_0.actEnergy                975995160                       # Energy for activate commands per rank (pJ)
system.mem_ctrls_0.preEnergy                518753730                       # Energy for precharge commands per rank (pJ)
system.mem_ctrls_0.readEnergy              4286884560                       # Energy for read commands per rank (pJ)
system.mem_ctrls_0.writeEnergy             1633343220                       # Energy for write commands per rank (pJ)
system.mem_ctrls_0.refreshEnergy         18232680960.000004                       # Energy for refresh commands per rank (pJ)
system.mem_ctrls_0.actBackEnergy          24241989420                       # Energy for active background per rank (pJ)
system.mem_ctrls_0.preBackEnergy           1175822880                       # Energy for precharge background per rank (pJ)
system.mem_ctrls_0.actPowerDownEnergy     36765074670                       # Energy for active power-down per rank (pJ)
system.mem_ctrls_0.prePowerDownEnergy     21909742080                       # Energy for precharge power-down per rank (pJ)
system.mem_ctrls_0.selfRefreshEnergy     558766048500                       # Energy for self refresh per rank (pJ)
system.mem_ctrls_0.totalEnergy           668515448970                       # Total energy per rank (pJ)
system.mem_ctrls_0.averagePower            266.304760                       # Core power per rank (mW)
system.mem_ctrls_0.totalIdleTime         2454092034999                       # Total Idle time Per DRAM Rank
system.mem_ctrls_0.memoryStateTime::IDLE   2000462000                       # Time in different power states
system.mem_ctrls_0.memoryStateTime::REF    7744500000                       # Time in different power states
system.mem_ctrls_0.memoryStateTime::SREF 2316413569250                       # Time in different power states
system.mem_ctrls_0.memoryStateTime::PRE_PDN  57056761500                       # Time in different power states
system.mem_ctrls_0.memoryStateTime::ACT   46499396001                       # Time in different power states
system.mem_ctrls_0.memoryStateTime::ACT_PDN  80625149749                       # Time in different power states
system.mem_ctrls_1.actEnergy                980050680                       # Energy for activate commands per rank (pJ)
system.mem_ctrls_1.preEnergy                520909290                       # Energy for precharge commands per rank (pJ)
system.mem_ctrls_1.readEnergy              4359534060                       # Energy for read commands per rank (pJ)
system.mem_ctrls_1.writeEnergy             1602023220                       # Energy for write commands per rank (pJ)
system.mem_ctrls_1.refreshEnergy         16879243680.000002                       # Energy for refresh commands per rank (pJ)
system.mem_ctrls_1.actBackEnergy          23914011420                       # Energy for active background per rank (pJ)
system.mem_ctrls_1.preBackEnergy           1079241600                       # Energy for precharge background per rank (pJ)
system.mem_ctrls_1.actPowerDownEnergy     34665574290                       # Energy for active power-down per rank (pJ)
system.mem_ctrls_1.prePowerDownEnergy     19548224160                       # Energy for precharge power-down per rank (pJ)
system.mem_ctrls_1.selfRefreshEnergy     561166905180                       # Energy for self refresh per rank (pJ)
system.mem_ctrls_1.totalEnergy           664724503560                       # Total energy per rank (pJ)
system.mem_ctrls_1.averagePower            264.794628                       # Core power per rank (mW)
system.mem_ctrls_1.totalIdleTime         2455066329499                       # Total Idle time Per DRAM Rank
system.mem_ctrls_1.memoryStateTime::IDLE   1792423750                       # Time in different power states
system.mem_ctrls_1.memoryStateTime::REF    7167378000                       # Time in different power states
system.mem_ctrls_1.memoryStateTime::SREF 2328138846750                       # Time in different power states
system.mem_ctrls_1.memoryStateTime::PRE_PDN  50906732000                       # Time in different power states
system.mem_ctrls_1.memoryStateTime::ACT   46313402251                       # Time in different power states
system.mem_ctrls_1.memoryStateTime::ACT_PDN  76021055749                       # Time in different power states
system.pwrStateResidencyTicks::UNDEFINED 2510339838500                       # Cumulative time (in ticks) in various power states
system.bridge.pwrStateResidencyTicks::UNDEFINED 2510339838500                       # Cumulative time (in ticks) in various power states
system.cpu_voltage_domain.voltage                   1                       # Voltage in Volts
system.cpu_clk_domain.clock                       500                       # Clock period in ticks
system.cpu.dtb.fetch_hits                           0                       # ITB hits
system.cpu.dtb.fetch_misses                         0                       # ITB misses
system.cpu.dtb.fetch_acv                            0                       # ITB acv
system.cpu.dtb.fetch_accesses                       0                       # ITB accesses
system.cpu.dtb.read_hits                     16029225                       # DTB read hits
system.cpu.dtb.read_misses                      12422                       # DTB read misses
system.cpu.dtb.read_acv                            98                       # DTB read access violations
system.cpu.dtb.read_accesses                   816984                       # DTB read accesses
system.cpu.dtb.write_hits                     8873988                       # DTB write hits
system.cpu.dtb.write_misses                      1305                       # DTB write misses
system.cpu.dtb.write_acv                          169                       # DTB write access violations
system.cpu.dtb.write_accesses                  324492                       # DTB write accesses
system.cpu.dtb.data_hits                     24903213                       # DTB hits
system.cpu.dtb.data_misses                      13727                       # DTB misses
system.cpu.dtb.data_acv                           267                       # DTB access violations
system.cpu.dtb.data_accesses                  1141476                       # DTB accesses
system.cpu.itb.fetch_hits                     5661488                       # ITB hits
system.cpu.itb.fetch_misses                      6026                       # ITB misses
system.cpu.itb.fetch_acv                            1                       # ITB acv
system.cpu.itb.fetch_accesses                 5667514                       # ITB accesses
system.cpu.itb.read_hits                            0                       # DTB read hits
system.cpu.itb.read_misses                          0                       # DTB read misses
system.cpu.itb.read_acv                             0                       # DTB read access violations
system.cpu.itb.read_accesses                        0                       # DTB read accesses
system.cpu.itb.write_hits                           0                       # DTB write hits
system.cpu.itb.write_misses                         0                       # DTB write misses
system.cpu.itb.write_acv                            0                       # DTB write access violations
system.cpu.itb.write_accesses                       0                       # DTB write accesses
system.cpu.itb.data_hits                            0                       # DTB hits
system.cpu.itb.data_misses                          0                       # DTB misses
system.cpu.itb.data_acv                             0                       # DTB access violations
system.cpu.itb.data_accesses                        0                       # DTB accesses
system.cpu.numPwrStateTransitions               14344                       # Number of power state transitions
system.cpu.pwrStateClkGateDist::samples          7172                       # Distribution of time spent in the clock gated state
system.cpu.pwrStateClkGateDist::mean     306275076.408254                       # Distribution of time spent in the clock gated state
system.cpu.pwrStateClkGateDist::stdev    450167556.422592                       # Distribution of time spent in the clock gated state
system.cpu.pwrStateClkGateDist::1000-5e+10         7172    100.00%    100.00% # Distribution of time spent in the clock gated state
system.cpu.pwrStateClkGateDist::min_value        16000                       # Distribution of time spent in the clock gated state
system.cpu.pwrStateClkGateDist::max_value   2000000000                       # Distribution of time spent in the clock gated state
system.cpu.pwrStateClkGateDist::total            7172                       # Distribution of time spent in the clock gated state
system.cpu.pwrStateResidencyTicks::ON    313734990500                       # Cumulative time (in ticks) in various power states
system.cpu.pwrStateResidencyTicks::CLK_GATED 2196604848000                       # Cumulative time (in ticks) in various power states
system.cpu.numCycles                       5020679677                       # number of cpu cycles simulated
system.cpu.numWorkItemsStarted                      0                       # number of work items this cpu started
system.cpu.numWorkItemsCompleted                    0                       # number of work items this cpu completed
system.cpu.kern.inst.arm                            0                       # number of arm instructions executed
system.cpu.kern.inst.quiesce                     7172                       # number of quiesce instructions executed
system.cpu.kern.callpal::cserve                     1      0.00%      0.00% # number of callpals executed
system.cpu.kern.callpal::wrmces                     1      0.00%      0.00% # number of callpals executed
system.cpu.kern.callpal::wrfen                      1      0.00%      0.00% # number of callpals executed
system.cpu.kern.callpal::wrvptptr                   1      0.00%      0.00% # number of callpals executed
system.cpu.kern.callpal::swpctx                  4520      2.11%      2.11% # number of callpals executed
system.cpu.kern.callpal::tbi                       65      0.03%      2.14% # number of callpals executed
system.cpu.kern.callpal::wrent                      7      0.00%      2.14% # number of callpals executed
system.cpu.kern.callpal::swpipl                197113     91.89%     94.03% # number of callpals executed
system.cpu.kern.callpal::rdps                    5873      2.74%     96.77% # number of callpals executed
system.cpu.kern.callpal::wrkgp                      1      0.00%     96.77% # number of callpals executed
system.cpu.kern.callpal::wrusp                      8      0.00%     96.77% # number of callpals executed
system.cpu.kern.callpal::rdusp                     10      0.00%     96.78% # number of callpals executed
system.cpu.kern.callpal::whami                      2      0.00%     96.78% # number of callpals executed
system.cpu.kern.callpal::rti                     6116      2.85%     99.63% # number of callpals executed
system.cpu.kern.callpal::callsys                  559      0.26%     99.89% # number of callpals executed
system.cpu.kern.callpal::imb                      235      0.11%    100.00% # number of callpals executed
system.cpu.kern.callpal::total                 214513                       # number of callpals executed
system.cpu.kern.inst.hwrei                     237168                       # number of hwrei instructions executed
system.cpu.kern.mode_switch::kernel              6798                       # number of protection mode switches
system.cpu.kern.mode_switch::user                1967                       # number of protection mode switches
system.cpu.kern.mode_switch::idle                2344                       # number of protection mode switches
system.cpu.kern.mode_good::kernel                2047                      
system.cpu.kern.mode_good::user                  1967                      
system.cpu.kern.mode_good::idle                    80                      
system.cpu.kern.mode_switch_good::kernel     0.301118                       # fraction of useful protection mode switches
system.cpu.kern.mode_switch_good::user              1                       # fraction of useful protection mode switches
system.cpu.kern.mode_switch_good::idle       0.034130                       # fraction of useful protection mode switches
system.cpu.kern.mode_switch_good::total      0.368530                       # fraction of useful protection mode switches
system.cpu.kern.mode_ticks::kernel       222540932500      8.86%      8.86% # number of ticks spent at the given mode
system.cpu.kern.mode_ticks::user           9779602000      0.39%      9.25% # number of ticks spent at the given mode
system.cpu.kern.mode_ticks::idle         2278018034000     90.75%    100.00% # number of ticks spent at the given mode
system.cpu.kern.swap_context                     4521                       # number of times the context was actually changed
system.cpu.kern.ipl_count::0                    82649     40.15%     40.15% # number of times we switched to this ipl
system.cpu.kern.ipl_count::21                     117      0.06%     40.20% # number of times we switched to this ipl
system.cpu.kern.ipl_count::22                    2515      1.22%     41.43% # number of times we switched to this ipl
system.cpu.kern.ipl_count::31                  120581     58.57%    100.00% # number of times we switched to this ipl
system.cpu.kern.ipl_count::total               205862                       # number of times we switched to this ipl
system.cpu.kern.ipl_good::0                     81112     49.20%     49.20% # number of times we switched to this ipl from a different ipl
system.cpu.kern.ipl_good::21                      117      0.07%     49.27% # number of times we switched to this ipl from a different ipl
system.cpu.kern.ipl_good::22                     2515      1.53%     50.80% # number of times we switched to this ipl from a different ipl
system.cpu.kern.ipl_good::31                    81112     49.20%    100.00% # number of times we switched to this ipl from a different ipl
system.cpu.kern.ipl_good::total                164856                       # number of times we switched to this ipl from a different ipl
system.cpu.kern.ipl_ticks::0             2397607620500     95.51%     95.51% # number of cycles we spent at this ipl
system.cpu.kern.ipl_ticks::21               112047000      0.00%     95.51% # number of cycles we spent at this ipl
system.cpu.kern.ipl_ticks::22              1203819500      0.05%     95.56% # number of cycles we spent at this ipl
system.cpu.kern.ipl_ticks::31            111415083500      4.44%    100.00% # number of cycles we spent at this ipl
system.cpu.kern.ipl_ticks::total         2510338570500                       # number of cycles we spent at this ipl
system.cpu.kern.ipl_used::0                  0.981403                       # fraction of swpipl calls that actually changed the ipl
system.cpu.kern.ipl_used::21                        1                       # fraction of swpipl calls that actually changed the ipl
system.cpu.kern.ipl_used::22                        1                       # fraction of swpipl calls that actually changed the ipl
system.cpu.kern.ipl_used::31                 0.672676                       # fraction of swpipl calls that actually changed the ipl
system.cpu.kern.ipl_used::total              0.800808                       # fraction of swpipl calls that actually changed the ipl
system.cpu.committedInsts                    91611157                       # Number of instructions committed
system.cpu.committedOps                      91611157                       # Number of ops (including micro ops) committed
system.cpu.num_int_alu_accesses              88612105                       # Number of integer alu accesses
system.cpu.num_fp_alu_accesses                 427122                       # Number of float alu accesses
system.cpu.num_vec_alu_accesses                     0                       # Number of vector alu accesses
system.cpu.num_func_calls                     2914370                       # number of times a function call or return occured
system.cpu.num_conditional_control_insts     11615425                       # number of instructions that are conditional controls
system.cpu.num_int_insts                     88612105                       # number of integer instructions
system.cpu.num_fp_insts                        427122                       # number of float instructions
system.cpu.num_vec_insts                            0                       # number of vector instructions
system.cpu.num_int_register_reads           121043918                       # number of times the integer registers were read
system.cpu.num_int_register_writes           66915432                       # number of times the integer registers were written
system.cpu.num_fp_register_reads               178181                       # number of times the floating registers were read
system.cpu.num_fp_register_writes              181187                       # number of times the floating registers were written
system.cpu.num_vec_register_reads                   0                       # number of times the vector registers were read
system.cpu.num_vec_register_writes                  0                       # number of times the vector registers were written
system.cpu.num_mem_refs                      24962169                       # number of memory refs
system.cpu.num_load_insts                    16070630                       # Number of load instructions
system.cpu.num_store_insts                    8891539                       # Number of store instructions
system.cpu.num_idle_cycles               4393209695.998250                       # Number of idle cycles
system.cpu.num_busy_cycles               627469981.001750                       # Number of busy cycles
system.cpu.not_idle_fraction                 0.124977                       # Percentage of non-idle cycles
system.cpu.idle_fraction                     0.875023                       # Percentage of idle cycles
system.cpu.Branches                          15142315                       # Number of branches fetched
system.cpu.op_class::No_OpClass               1594647      1.74%      1.74% # Class of executed instruction
system.cpu.op_class::IntAlu                  63147975     68.92%     70.66% # Class of executed instruction
system.cpu.op_class::IntMult                   186246      0.20%     70.86% # Class of executed instruction
system.cpu.op_class::IntDiv                         0      0.00%     70.86% # Class of executed instruction
system.cpu.op_class::FloatAdd                  117446      0.13%     70.99% # Class of executed instruction
system.cpu.op_class::FloatCmp                       0      0.00%     70.99% # Class of executed instruction
system.cpu.op_class::FloatCvt                       0      0.00%     70.99% # Class of executed instruction
system.cpu.op_class::FloatMult                      0      0.00%     70.99% # Class of executed instruction
system.cpu.op_class::FloatMultAcc                   0      0.00%     70.99% # Class of executed instruction
system.cpu.op_class::FloatDiv                    4179      0.00%     71.00% # Class of executed instruction
system.cpu.op_class::FloatMisc                      0      0.00%     71.00% # Class of executed instruction
system.cpu.op_class::FloatSqrt                      0      0.00%     71.00% # Class of executed instruction
system.cpu.op_class::SimdAdd                        0      0.00%     71.00% # Class of executed instruction
system.cpu.op_class::SimdAddAcc                     0      0.00%     71.00% # Class of executed instruction
system.cpu.op_class::SimdAlu                        0      0.00%     71.00% # Class of executed instruction
system.cpu.op_class::SimdCmp                        0      0.00%     71.00% # Class of executed instruction
system.cpu.op_class::SimdCvt                        0      0.00%     71.00% # Class of executed instruction
system.cpu.op_class::SimdMisc                       0      0.00%     71.00% # Class of executed instruction
system.cpu.op_class::SimdMult                       0      0.00%     71.00% # Class of executed instruction
system.cpu.op_class::SimdMultAcc                    0      0.00%     71.00% # Class of executed instruction
system.cpu.op_class::SimdShift                      0      0.00%     71.00% # Class of executed instruction
system.cpu.op_class::SimdShiftAcc                   0      0.00%     71.00% # Class of executed instruction
system.cpu.op_class::SimdSqrt                       0      0.00%     71.00% # Class of executed instruction
system.cpu.op_class::SimdFloatAdd                   0      0.00%     71.00% # Class of executed instruction
system.cpu.op_class::SimdFloatAlu                   0      0.00%     71.00% # Class of executed instruction
system.cpu.op_class::SimdFloatCmp                   0      0.00%     71.00% # Class of executed instruction
system.cpu.op_class::SimdFloatCvt                   0      0.00%     71.00% # Class of executed instruction
system.cpu.op_class::SimdFloatDiv                   0      0.00%     71.00% # Class of executed instruction
system.cpu.op_class::SimdFloatMisc                  0      0.00%     71.00% # Class of executed instruction
system.cpu.op_class::SimdFloatMult                  0      0.00%     71.00% # Class of executed instruction
system.cpu.op_class::SimdFloatMultAcc               0      0.00%     71.00% # Class of executed instruction
system.cpu.op_class::SimdFloatSqrt                  0      0.00%     71.00% # Class of executed instruction
system.cpu.op_class::MemRead                 16370677     17.87%     88.86% # Class of executed instruction
system.cpu.op_class::MemWrite                 8816600      9.62%     98.49% # Class of executed instruction
system.cpu.op_class::FloatMemRead              156345      0.17%     98.66% # Class of executed instruction
system.cpu.op_class::FloatMemWrite             149152      0.16%     98.82% # Class of executed instruction
system.cpu.op_class::IprAccess                1081884      1.18%    100.00% # Class of executed instruction
system.cpu.op_class::InstPrefetch                   0      0.00%    100.00% # Class of executed instruction
system.cpu.op_class::total                   91625151                       # Class of executed instruction
system.cpu.dcache.tags.pwrStateResidencyTicks::UNDEFINED 2510339838500                       # Cumulative time (in ticks) in various power states
system.cpu.dcache.tags.replacements           4412487                       # number of replacements
system.cpu.dcache.tags.tagsinuse          2047.822894                       # Cycle average of tags in use
system.cpu.dcache.tags.total_refs            20505215                       # Total number of references to valid blocks.
system.cpu.dcache.tags.sampled_refs           4412487                       # Sample count of references to valid blocks.
system.cpu.dcache.tags.avg_refs              4.647088                       # Average number of references to valid blocks.
system.cpu.dcache.tags.warmup_cycle         265708500                       # Cycle when the warmup percentage was hit.
system.cpu.dcache.tags.occ_blocks::cpu.data  2047.822894                       # Average occupied blocks per requestor
system.cpu.dcache.tags.occ_percent::cpu.data     0.999914                       # Average percentage of cache occupancy
system.cpu.dcache.tags.occ_percent::total     0.999914                       # Average percentage of cache occupancy
system.cpu.dcache.tags.occ_task_id_blocks::1024         2048                       # Occupied blocks per task id
system.cpu.dcache.tags.age_task_id_blocks_1024::0          139                       # Occupied blocks per task id
system.cpu.dcache.tags.age_task_id_blocks_1024::1          842                       # Occupied blocks per task id
system.cpu.dcache.tags.age_task_id_blocks_1024::2         1067                       # Occupied blocks per task id
system.cpu.dcache.tags.occ_task_id_percent::1024            1                       # Percentage of cache occupancy per task id
system.cpu.dcache.tags.tag_accesses          29339655                       # Number of tag accesses
system.cpu.dcache.tags.data_accesses         29339655                       # Number of data accesses
system.cpu.dcache.pwrStateResidencyTicks::UNDEFINED 2510339838500                       # Cumulative time (in ticks) in various power states
system.cpu.dcache.ReadReq_hits::cpu.data     12906745                       # number of ReadReq hits
system.cpu.dcache.ReadReq_hits::total        12906745                       # number of ReadReq hits
system.cpu.dcache.WriteReq_hits::cpu.data      7008301                       # number of WriteReq hits
system.cpu.dcache.WriteReq_hits::total        7008301                       # number of WriteReq hits
system.cpu.dcache.LoadLockedReq_hits::cpu.data       278917                       # number of LoadLockedReq hits
system.cpu.dcache.LoadLockedReq_hits::total       278917                       # number of LoadLockedReq hits
system.cpu.dcache.StoreCondReq_hits::cpu.data       315581                       # number of StoreCondReq hits
system.cpu.dcache.StoreCondReq_hits::total       315581                       # number of StoreCondReq hits
system.cpu.dcache.demand_hits::cpu.data      19915046                       # number of demand (read+write) hits
system.cpu.dcache.demand_hits::total         19915046                       # number of demand (read+write) hits
system.cpu.dcache.overall_hits::cpu.data     19915046                       # number of overall hits
system.cpu.dcache.overall_hits::total        19915046                       # number of overall hits
system.cpu.dcache.ReadReq_misses::cpu.data      2827640                       # number of ReadReq misses
system.cpu.dcache.ReadReq_misses::total       2827640                       # number of ReadReq misses
system.cpu.dcache.WriteReq_misses::cpu.data      1549690                       # number of WriteReq misses
system.cpu.dcache.WriteReq_misses::total      1549690                       # number of WriteReq misses
system.cpu.dcache.LoadLockedReq_misses::cpu.data        37752                       # number of LoadLockedReq misses
system.cpu.dcache.LoadLockedReq_misses::total        37752                       # number of LoadLockedReq misses
system.cpu.dcache.demand_misses::cpu.data      4377330                       # number of demand (read+write) misses
system.cpu.dcache.demand_misses::total        4377330                       # number of demand (read+write) misses
system.cpu.dcache.overall_misses::cpu.data      4377330                       # number of overall misses
system.cpu.dcache.overall_misses::total       4377330                       # number of overall misses
system.cpu.dcache.ReadReq_miss_latency::cpu.data  64446944000                       # number of ReadReq miss cycles
system.cpu.dcache.ReadReq_miss_latency::total  64446944000                       # number of ReadReq miss cycles
system.cpu.dcache.WriteReq_miss_latency::cpu.data  78042514000                       # number of WriteReq miss cycles
system.cpu.dcache.WriteReq_miss_latency::total  78042514000                       # number of WriteReq miss cycles
system.cpu.dcache.LoadLockedReq_miss_latency::cpu.data    552778000                       # number of LoadLockedReq miss cycles
system.cpu.dcache.LoadLockedReq_miss_latency::total    552778000                       # number of LoadLockedReq miss cycles
system.cpu.dcache.demand_miss_latency::cpu.data 142489458000                       # number of demand (read+write) miss cycles
system.cpu.dcache.demand_miss_latency::total 142489458000                       # number of demand (read+write) miss cycles
system.cpu.dcache.overall_miss_latency::cpu.data 142489458000                       # number of overall miss cycles
system.cpu.dcache.overall_miss_latency::total 142489458000                       # number of overall miss cycles
system.cpu.dcache.ReadReq_accesses::cpu.data     15734385                       # number of ReadReq accesses(hits+misses)
system.cpu.dcache.ReadReq_accesses::total     15734385                       # number of ReadReq accesses(hits+misses)
system.cpu.dcache.WriteReq_accesses::cpu.data      8557991                       # number of WriteReq accesses(hits+misses)
system.cpu.dcache.WriteReq_accesses::total      8557991                       # number of WriteReq accesses(hits+misses)
system.cpu.dcache.LoadLockedReq_accesses::cpu.data       316669                       # number of LoadLockedReq accesses(hits+misses)
system.cpu.dcache.LoadLockedReq_accesses::total       316669                       # number of LoadLockedReq accesses(hits+misses)
system.cpu.dcache.StoreCondReq_accesses::cpu.data       315581                       # number of StoreCondReq accesses(hits+misses)
system.cpu.dcache.StoreCondReq_accesses::total       315581                       # number of StoreCondReq accesses(hits+misses)
system.cpu.dcache.demand_accesses::cpu.data     24292376                       # number of demand (read+write) accesses
system.cpu.dcache.demand_accesses::total     24292376                       # number of demand (read+write) accesses
system.cpu.dcache.overall_accesses::cpu.data     24292376                       # number of overall (read+write) accesses
system.cpu.dcache.overall_accesses::total     24292376                       # number of overall (read+write) accesses
system.cpu.dcache.ReadReq_miss_rate::cpu.data     0.179711                       # miss rate for ReadReq accesses
system.cpu.dcache.ReadReq_miss_rate::total     0.179711                       # miss rate for ReadReq accesses
system.cpu.dcache.WriteReq_miss_rate::cpu.data     0.181081                       # miss rate for WriteReq accesses
system.cpu.dcache.WriteReq_miss_rate::total     0.181081                       # miss rate for WriteReq accesses
system.cpu.dcache.LoadLockedReq_miss_rate::cpu.data     0.119216                       # miss rate for LoadLockedReq accesses
system.cpu.dcache.LoadLockedReq_miss_rate::total     0.119216                       # miss rate for LoadLockedReq accesses
system.cpu.dcache.demand_miss_rate::cpu.data     0.180194                       # miss rate for demand accesses
system.cpu.dcache.demand_miss_rate::total     0.180194                       # miss rate for demand accesses
system.cpu.dcache.overall_miss_rate::cpu.data     0.180194                       # miss rate for overall accesses
system.cpu.dcache.overall_miss_rate::total     0.180194                       # miss rate for overall accesses
system.cpu.dcache.ReadReq_avg_miss_latency::cpu.data 22791.778303                       # average ReadReq miss latency
system.cpu.dcache.ReadReq_avg_miss_latency::total 22791.778303                       # average ReadReq miss latency
system.cpu.dcache.WriteReq_avg_miss_latency::cpu.data 50360.081048                       # average WriteReq miss latency
system.cpu.dcache.WriteReq_avg_miss_latency::total 50360.081048                       # average WriteReq miss latency
system.cpu.dcache.LoadLockedReq_avg_miss_latency::cpu.data 14642.350074                       # average LoadLockedReq miss latency
system.cpu.dcache.LoadLockedReq_avg_miss_latency::total 14642.350074                       # average LoadLockedReq miss latency
system.cpu.dcache.demand_avg_miss_latency::cpu.data 32551.682875                       # average overall miss latency
system.cpu.dcache.demand_avg_miss_latency::total 32551.682875                       # average overall miss latency
system.cpu.dcache.overall_avg_miss_latency::cpu.data 32551.682875                       # average overall miss latency
system.cpu.dcache.overall_avg_miss_latency::total 32551.682875                       # average overall miss latency
system.cpu.dcache.blocked_cycles::no_mshrs            0                       # number of cycles access was blocked
system.cpu.dcache.blocked_cycles::no_targets            0                       # number of cycles access was blocked
system.cpu.dcache.blocked::no_mshrs                 0                       # number of cycles access was blocked
system.cpu.dcache.blocked::no_targets               0                       # number of cycles access was blocked
system.cpu.dcache.avg_blocked_cycles::no_mshrs          nan                       # average number of cycles each access was blocked
system.cpu.dcache.avg_blocked_cycles::no_targets          nan                       # average number of cycles each access was blocked
system.cpu.dcache.writebacks::writebacks      3760131                       # number of writebacks
system.cpu.dcache.writebacks::total           3760131                       # number of writebacks
system.cpu.dcache.ReadReq_mshr_misses::cpu.data      2827640                       # number of ReadReq MSHR misses
system.cpu.dcache.ReadReq_mshr_misses::total      2827640                       # number of ReadReq MSHR misses
system.cpu.dcache.WriteReq_mshr_misses::cpu.data      1549690                       # number of WriteReq MSHR misses
system.cpu.dcache.WriteReq_mshr_misses::total      1549690                       # number of WriteReq MSHR misses
system.cpu.dcache.LoadLockedReq_mshr_misses::cpu.data        37752                       # number of LoadLockedReq MSHR misses
system.cpu.dcache.LoadLockedReq_mshr_misses::total        37752                       # number of LoadLockedReq MSHR misses
system.cpu.dcache.demand_mshr_misses::cpu.data      4377330                       # number of demand (read+write) MSHR misses
system.cpu.dcache.demand_mshr_misses::total      4377330                       # number of demand (read+write) MSHR misses
system.cpu.dcache.overall_mshr_misses::cpu.data      4377330                       # number of overall MSHR misses
system.cpu.dcache.overall_mshr_misses::total      4377330                       # number of overall MSHR misses
system.cpu.dcache.ReadReq_mshr_uncacheable::cpu.data         7056                       # number of ReadReq MSHR uncacheable
system.cpu.dcache.ReadReq_mshr_uncacheable::total         7056                       # number of ReadReq MSHR uncacheable
system.cpu.dcache.WriteReq_mshr_uncacheable::cpu.data        10376                       # number of WriteReq MSHR uncacheable
system.cpu.dcache.WriteReq_mshr_uncacheable::total        10376                       # number of WriteReq MSHR uncacheable
system.cpu.dcache.overall_mshr_uncacheable_misses::cpu.data        17432                       # number of overall MSHR uncacheable misses
system.cpu.dcache.overall_mshr_uncacheable_misses::total        17432                       # number of overall MSHR uncacheable misses
system.cpu.dcache.ReadReq_mshr_miss_latency::cpu.data  61619304000                       # number of ReadReq MSHR miss cycles
system.cpu.dcache.ReadReq_mshr_miss_latency::total  61619304000                       # number of ReadReq MSHR miss cycles
system.cpu.dcache.WriteReq_mshr_miss_latency::cpu.data  76492824000                       # number of WriteReq MSHR miss cycles
system.cpu.dcache.WriteReq_mshr_miss_latency::total  76492824000                       # number of WriteReq MSHR miss cycles
system.cpu.dcache.LoadLockedReq_mshr_miss_latency::cpu.data    515026000                       # number of LoadLockedReq MSHR miss cycles
system.cpu.dcache.LoadLockedReq_mshr_miss_latency::total    515026000                       # number of LoadLockedReq MSHR miss cycles
system.cpu.dcache.demand_mshr_miss_latency::cpu.data 138112128000                       # number of demand (read+write) MSHR miss cycles
system.cpu.dcache.demand_mshr_miss_latency::total 138112128000                       # number of demand (read+write) MSHR miss cycles
system.cpu.dcache.overall_mshr_miss_latency::cpu.data 138112128000                       # number of overall MSHR miss cycles
system.cpu.dcache.overall_mshr_miss_latency::total 138112128000                       # number of overall MSHR miss cycles
system.cpu.dcache.ReadReq_mshr_uncacheable_latency::cpu.data   1566232500                       # number of ReadReq MSHR uncacheable cycles
system.cpu.dcache.ReadReq_mshr_uncacheable_latency::total   1566232500                       # number of ReadReq MSHR uncacheable cycles
system.cpu.dcache.overall_mshr_uncacheable_latency::cpu.data   1566232500                       # number of overall MSHR uncacheable cycles
system.cpu.dcache.overall_mshr_uncacheable_latency::total   1566232500                       # number of overall MSHR uncacheable cycles
system.cpu.dcache.ReadReq_mshr_miss_rate::cpu.data     0.179711                       # mshr miss rate for ReadReq accesses
system.cpu.dcache.ReadReq_mshr_miss_rate::total     0.179711                       # mshr miss rate for ReadReq accesses
system.cpu.dcache.WriteReq_mshr_miss_rate::cpu.data     0.181081                       # mshr miss rate for WriteReq accesses
system.cpu.dcache.WriteReq_mshr_miss_rate::total     0.181081                       # mshr miss rate for WriteReq accesses
system.cpu.dcache.LoadLockedReq_mshr_miss_rate::cpu.data     0.119216                       # mshr miss rate for LoadLockedReq accesses
system.cpu.dcache.LoadLockedReq_mshr_miss_rate::total     0.119216                       # mshr miss rate for LoadLockedReq accesses
system.cpu.dcache.demand_mshr_miss_rate::cpu.data     0.180194                       # mshr miss rate for demand accesses
system.cpu.dcache.demand_mshr_miss_rate::total     0.180194                       # mshr miss rate for demand accesses
system.cpu.dcache.overall_mshr_miss_rate::cpu.data     0.180194                       # mshr miss rate for overall accesses
system.cpu.dcache.overall_mshr_miss_rate::total     0.180194                       # mshr miss rate for overall accesses
system.cpu.dcache.ReadReq_avg_mshr_miss_latency::cpu.data 21791.778303                       # average ReadReq mshr miss latency
system.cpu.dcache.ReadReq_avg_mshr_miss_latency::total 21791.778303                       # average ReadReq mshr miss latency
system.cpu.dcache.WriteReq_avg_mshr_miss_latency::cpu.data 49360.081048                       # average WriteReq mshr miss latency
system.cpu.dcache.WriteReq_avg_mshr_miss_latency::total 49360.081048                       # average WriteReq mshr miss latency
system.cpu.dcache.LoadLockedReq_avg_mshr_miss_latency::cpu.data 13642.350074                       # average LoadLockedReq mshr miss latency
system.cpu.dcache.LoadLockedReq_avg_mshr_miss_latency::total 13642.350074                       # average LoadLockedReq mshr miss latency
system.cpu.dcache.demand_avg_mshr_miss_latency::cpu.data 31551.682875                       # average overall mshr miss latency
system.cpu.dcache.demand_avg_mshr_miss_latency::total 31551.682875                       # average overall mshr miss latency
system.cpu.dcache.overall_avg_mshr_miss_latency::cpu.data 31551.682875                       # average overall mshr miss latency
system.cpu.dcache.overall_avg_mshr_miss_latency::total 31551.682875                       # average overall mshr miss latency
system.cpu.dcache.ReadReq_avg_mshr_uncacheable_latency::cpu.data 221971.726190                       # average ReadReq mshr uncacheable latency
system.cpu.dcache.ReadReq_avg_mshr_uncacheable_latency::total 221971.726190                       # average ReadReq mshr uncacheable latency
system.cpu.dcache.overall_avg_mshr_uncacheable_latency::cpu.data 89848.124140                       # average overall mshr uncacheable latency
system.cpu.dcache.overall_avg_mshr_uncacheable_latency::total 89848.124140                       # average overall mshr uncacheable latency
system.cpu.icache.tags.pwrStateResidencyTicks::UNDEFINED 2510339838500                       # Cumulative time (in ticks) in various power states
system.cpu.icache.tags.replacements           4110152                       # number of replacements
system.cpu.icache.tags.tagsinuse          1021.132004                       # Cycle average of tags in use
system.cpu.icache.tags.total_refs            87445435                       # Total number of references to valid blocks.
system.cpu.icache.tags.sampled_refs           4110152                       # Sample count of references to valid blocks.
system.cpu.icache.tags.avg_refs             21.275475                       # Average number of references to valid blocks.
system.cpu.icache.tags.warmup_cycle       91750356500                       # Cycle when the warmup percentage was hit.
system.cpu.icache.tags.occ_blocks::cpu.inst  1021.132004                       # Average occupied blocks per requestor
system.cpu.icache.tags.occ_percent::cpu.inst     0.997199                       # Average percentage of cache occupancy
system.cpu.icache.tags.occ_percent::total     0.997199                       # Average percentage of cache occupancy
system.cpu.icache.tags.occ_task_id_blocks::1024         1023                       # Occupied blocks per task id
system.cpu.icache.tags.age_task_id_blocks_1024::0          289                       # Occupied blocks per task id
system.cpu.icache.tags.age_task_id_blocks_1024::1           75                       # Occupied blocks per task id
system.cpu.icache.tags.age_task_id_blocks_1024::2          178                       # Occupied blocks per task id
system.cpu.icache.tags.age_task_id_blocks_1024::3          481                       # Occupied blocks per task id
system.cpu.icache.tags.occ_task_id_percent::1024     0.999023                       # Percentage of cache occupancy per task id
system.cpu.icache.tags.tag_accesses         187361695                       # Number of tag accesses
system.cpu.icache.tags.data_accesses        187361695                       # Number of data accesses
system.cpu.icache.pwrStateResidencyTicks::UNDEFINED 2510339838500                       # Cumulative time (in ticks) in various power states
system.cpu.icache.ReadReq_hits::cpu.inst     87513761                       # number of ReadReq hits
system.cpu.icache.ReadReq_hits::total        87513761                       # number of ReadReq hits
system.cpu.icache.demand_hits::cpu.inst      87513761                       # number of demand (read+write) hits
system.cpu.icache.demand_hits::total         87513761                       # number of demand (read+write) hits
system.cpu.icache.overall_hits::cpu.inst     87513761                       # number of overall hits
system.cpu.icache.overall_hits::total        87513761                       # number of overall hits
system.cpu.icache.ReadReq_misses::cpu.inst      4111391                       # number of ReadReq misses
system.cpu.icache.ReadReq_misses::total       4111391                       # number of ReadReq misses
system.cpu.icache.demand_misses::cpu.inst      4111391                       # number of demand (read+write) misses
system.cpu.icache.demand_misses::total        4111391                       # number of demand (read+write) misses
system.cpu.icache.overall_misses::cpu.inst      4111391                       # number of overall misses
system.cpu.icache.overall_misses::total       4111391                       # number of overall misses
system.cpu.icache.ReadReq_miss_latency::cpu.inst  58707806500                       # number of ReadReq miss cycles
system.cpu.icache.ReadReq_miss_latency::total  58707806500                       # number of ReadReq miss cycles
system.cpu.icache.demand_miss_latency::cpu.inst  58707806500                       # number of demand (read+write) miss cycles
system.cpu.icache.demand_miss_latency::total  58707806500                       # number of demand (read+write) miss cycles
system.cpu.icache.overall_miss_latency::cpu.inst  58707806500                       # number of overall miss cycles
system.cpu.icache.overall_miss_latency::total  58707806500                       # number of overall miss cycles
system.cpu.icache.ReadReq_accesses::cpu.inst     91625152                       # number of ReadReq accesses(hits+misses)
system.cpu.icache.ReadReq_accesses::total     91625152                       # number of ReadReq accesses(hits+misses)
system.cpu.icache.demand_accesses::cpu.inst     91625152                       # number of demand (read+write) accesses
system.cpu.icache.demand_accesses::total     91625152                       # number of demand (read+write) accesses
system.cpu.icache.overall_accesses::cpu.inst     91625152                       # number of overall (read+write) accesses
system.cpu.icache.overall_accesses::total     91625152                       # number of overall (read+write) accesses
system.cpu.icache.ReadReq_miss_rate::cpu.inst     0.044872                       # miss rate for ReadReq accesses
system.cpu.icache.ReadReq_miss_rate::total     0.044872                       # miss rate for ReadReq accesses
system.cpu.icache.demand_miss_rate::cpu.inst     0.044872                       # miss rate for demand accesses
system.cpu.icache.demand_miss_rate::total     0.044872                       # miss rate for demand accesses
system.cpu.icache.overall_miss_rate::cpu.inst     0.044872                       # miss rate for overall accesses
system.cpu.icache.overall_miss_rate::total     0.044872                       # miss rate for overall accesses
system.cpu.icache.ReadReq_avg_miss_latency::cpu.inst 14279.305106                       # average ReadReq miss latency
system.cpu.icache.ReadReq_avg_miss_latency::total 14279.305106                       # average ReadReq miss latency
system.cpu.icache.demand_avg_miss_latency::cpu.inst 14279.305106                       # average overall miss latency
system.cpu.icache.demand_avg_miss_latency::total 14279.305106                       # average overall miss latency
system.cpu.icache.overall_avg_miss_latency::cpu.inst 14279.305106                       # average overall miss latency
system.cpu.icache.overall_avg_miss_latency::total 14279.305106                       # average overall miss latency
system.cpu.icache.blocked_cycles::no_mshrs            0                       # number of cycles access was blocked
system.cpu.icache.blocked_cycles::no_targets            0                       # number of cycles access was blocked
system.cpu.icache.blocked::no_mshrs                 0                       # number of cycles access was blocked
system.cpu.icache.blocked::no_targets               0                       # number of cycles access was blocked
system.cpu.icache.avg_blocked_cycles::no_mshrs          nan                       # average number of cycles each access was blocked
system.cpu.icache.avg_blocked_cycles::no_targets          nan                       # average number of cycles each access was blocked
system.cpu.icache.writebacks::writebacks      4110152                       # number of writebacks
system.cpu.icache.writebacks::total           4110152                       # number of writebacks
[...]
system.l2.overall_avg_mshr_uncacheable_latency::total 120198.139535                       # average overall mshr uncacheable latency
system.membus.snoop_filter.tot_requests        130593                       # Total number of requests made to the snoop filter.
system.membus.snoop_filter.hit_single_requests        75436                       # Number of requests hitting in the snoop filter with a single holder of the requested data.
system.membus.snoop_filter.hit_multi_requests           27                       # Number of requests hitting in the snoop filter with multiple (>1) holders of the requested data.
system.membus.snoop_filter.tot_snoops               0                       # Total number of snoops made to the snoop filter.
system.membus.snoop_filter.hit_single_snoops            0                       # Number of snoops hitting in the snoop filter with a single holder of the requested data.
system.membus.snoop_filter.hit_multi_snoops            0                       # Number of snoops hitting in the snoop filter with multiple (>1) holders of the requested data.
system.membus.pwrStateResidencyTicks::UNDEFINED   7335333000                       # Cumulative time (in ticks) in various power states
system.membus.trans_dist::ReadReq                 610                       # Transaction distribution
system.membus.trans_dist::ReadResp               7564                       # Transaction distribution
system.membus.trans_dist::WriteReq                465                       # Transaction distribution
system.membus.trans_dist::WriteResp               465                       # Transaction distribution
system.membus.trans_dist::WritebackDirty        48799                       # Transaction distribution
system.membus.trans_dist::CleanEvict             6696                       # Transaction distribution
system.membus.trans_dist::UpgradeReq               19                       # Transaction distribution
system.membus.trans_dist::ReadExReq             22813                       # Transaction distribution
system.membus.trans_dist::ReadExResp            22813                       # Transaction distribution
system.membus.trans_dist::ReadSharedReq          6954                       # Transaction distribution
system.membus.trans_dist::InvalidateReq         45312                       # Transaction distribution
system.membus.trans_dist::InvalidateResp        19922                       # Transaction distribution
system.membus.pkt_count_system.iocache.mem_side::system.mem_ctrls.port        90678                       # Packet count per connected master and slave (bytes)
system.membus.pkt_count_system.iocache.mem_side::total        90678                       # Packet count per connected master and slave (bytes)
system.membus.pkt_count_system.l2.mem_side::system.bridge.slave         2150                       # Packet count per connected master and slave (bytes)
system.membus.pkt_count_system.l2.mem_side::system.mem_ctrls.port        69655                       # Packet count per connected master and slave (bytes)
system.membus.pkt_count_system.l2.mem_side::total        71805                       # Packet count per connected master and slave (bytes)
system.membus.pkt_count::total                 162483                       # Packet count per connected master and slave (bytes)
system.membus.pkt_size_system.iocache.mem_side::system.mem_ctrls.port       724992                       # Cumulative packet size per connected master and slave (bytes)
system.membus.pkt_size_system.iocache.mem_side::total       724992                       # Cumulative packet size per connected master and slave (bytes)
system.membus.pkt_size_system.l2.mem_side::system.bridge.slave         1743                       # Cumulative packet size per connected master and slave (bytes)
system.membus.pkt_size_system.l2.mem_side::system.mem_ctrls.port       531632                       # Cumulative packet size per connected master and slave (bytes)
system.membus.pkt_size_system.l2.mem_side::total       533375                       # Cumulative packet size per connected master and slave (bytes)
system.membus.pkt_size::total                 1258367                       # Cumulative packet size per connected master and slave (bytes)
system.membus.snoops                            19949                       # Total snoops (count)
system.membus.snoopTraffic                        432                       # Total snoop traffic (bytes)
system.membus.snoop_fanout::samples             76173                       # Request fanout histogram
system.membus.snoop_fanout::mean             0.261891                       # Request fanout histogram
system.membus.snoop_fanout::stdev            0.439666                       # Request fanout histogram
system.membus.snoop_fanout::underflows              0      0.00%      0.00% # Request fanout histogram
system.membus.snoop_fanout::0                   56224     73.81%     73.81% # Request fanout histogram
system.membus.snoop_fanout::1                   19949     26.19%    100.00% # Request fanout histogram
system.membus.snoop_fanout::2                       0      0.00%    100.00% # Request fanout histogram
system.membus.snoop_fanout::overflows               0      0.00%    100.00% # Request fanout histogram
system.membus.snoop_fanout::min_value               0                       # Request fanout histogram
system.membus.snoop_fanout::max_value               1                       # Request fanout histogram
system.membus.snoop_fanout::total               76173                       # Request fanout histogram
system.membus.reqLayer0.occupancy             1835500                       # Layer occupancy (ticks)
system.membus.reqLayer0.utilization               0.0                       # Layer utilization (%)
system.membus.reqLayer1.occupancy           179415156                       # Layer occupancy (ticks)
system.membus.reqLayer1.utilization               2.4                       # Layer utilization (%)
system.membus.respLayer1.occupancy           20770111                       # Layer occupancy (ticks)
system.membus.respLayer1.utilization              0.3                       # Layer utilization (%)
system.membus.respLayer2.occupancy           69364000                       # Layer occupancy (ticks)
system.membus.respLayer2.utilization              0.9                       # Layer utilization (%)
system.membus.badaddr_responder.pwrStateResidencyTicks::UNDEFINED   7335333000                       # Cumulative time (in ticks) in various power states
system.tol2bus.snoop_filter.tot_requests       398103                       # Total number of requests made to the snoop filter.
system.tol2bus.snoop_filter.hit_single_requests       199052                       # Number of requests hitting in the snoop filter with a single holder of the requested data.
system.tol2bus.snoop_filter.hit_multi_requests          361                       # Number of requests hitting in the snoop filter with multiple (>1) holders of the requested data.
system.tol2bus.snoop_filter.tot_snoops             49                       # Total number of snoops made to the snoop filter.
system.tol2bus.snoop_filter.hit_single_snoops           49                       # Number of snoops hitting in the snoop filter with a single holder of the requested data.
system.tol2bus.snoop_filter.hit_multi_snoops            0                       # Number of snoops hitting in the snoop filter with multiple (>1) holders of the requested data.
system.tol2bus.pwrStateResidencyTicks::UNDEFINED   7335333000                       # Cumulative time (in ticks) in various power states
system.tol2bus.trans_dist::ReadReq                610                       # Transaction distribution
system.tol2bus.trans_dist::ReadResp            143345                       # Transaction distribution
system.tol2bus.trans_dist::WriteReq               465                       # Transaction distribution
system.tol2bus.trans_dist::WriteResp              465                       # Transaction distribution
system.tol2bus.trans_dist::WritebackDirty        86712                       # Transaction distribution
system.tol2bus.trans_dist::WritebackClean        98264                       # Transaction distribution
system.tol2bus.trans_dist::CleanEvict           24225                       # Transaction distribution
system.tol2bus.trans_dist::UpgradeReq               6                       # Transaction distribution
system.tol2bus.trans_dist::UpgradeResp              6                       # Transaction distribution
system.tol2bus.trans_dist::ReadExReq            56332                       # Transaction distribution
system.tol2bus.trans_dist::ReadExResp           56332                       # Transaction distribution
system.tol2bus.trans_dist::ReadCleanReq         98271                       # Transaction distribution
system.tol2bus.trans_dist::ReadSharedReq        44476                       # Transaction distribution
system.tol2bus.trans_dist::InvalidateReq        19922                       # Transaction distribution
system.tol2bus.pkt_count_system.cpu.icache.mem_side::system.l2.cpu_side       294804                       # Packet count per connected master and slave (bytes)
system.tol2bus.pkt_count_system.cpu.dcache.mem_side::system.l2.cpu_side       304520                       # Packet count per connected master and slave (bytes)
system.tol2bus.pkt_count::total                599324                       # Packet count per connected master and slave (bytes)
system.tol2bus.pkt_size_system.cpu.icache.mem_side::system.l2.cpu_side      3144528                       # Cumulative packet size per connected master and slave (bytes)
system.tol2bus.pkt_size_system.cpu.dcache.mem_side::system.l2.cpu_side      2946079                       # Cumulative packet size per connected master and slave (bytes)
system.tol2bus.pkt_size::total                6090607                       # Cumulative packet size per connected master and slave (bytes)
system.tol2bus.snoops                           30122                       # Total snoops (count)
system.tol2bus.snoopTraffic                     56064                       # Total snoop traffic (bytes)
system.tol2bus.snoop_fanout::samples           230238                       # Request fanout histogram
system.tol2bus.snoop_fanout::mean            0.001785                       # Request fanout histogram
system.tol2bus.snoop_fanout::stdev           0.042213                       # Request fanout histogram
system.tol2bus.snoop_fanout::underflows             0      0.00%      0.00% # Request fanout histogram
system.tol2bus.snoop_fanout::0                 229827     99.82%     99.82% # Request fanout histogram
system.tol2bus.snoop_fanout::1                    411      0.18%    100.00% # Request fanout histogram
system.tol2bus.snoop_fanout::2                      0      0.00%    100.00% # Request fanout histogram
system.tol2bus.snoop_fanout::overflows              0      0.00%    100.00% # Request fanout histogram
system.tol2bus.snoop_fanout::min_value              0                       # Request fanout histogram
system.tol2bus.snoop_fanout::max_value              1                       # Request fanout histogram
system.tol2bus.snoop_fanout::total             230238                       # Request fanout histogram
system.tol2bus.reqLayer0.occupancy          290566000                       # Layer occupancy (ticks)
system.tol2bus.reqLayer0.utilization              4.0                       # Layer utilization (%)
system.tol2bus.snoopLayer0.occupancy            22485                       # Layer occupancy (ticks)
system.tol2bus.snoopLayer0.utilization            0.0                       # Layer utilization (%)
system.tol2bus.respLayer0.occupancy          98271000                       # Layer occupancy (ticks)
system.tol2bus.respLayer0.utilization             1.3                       # Layer utilization (%)
system.tol2bus.respLayer1.occupancy         101626500                       # Layer occupancy (ticks)
system.tol2bus.respLayer1.utilization             1.4                       # Layer utilization (%)
system.tsunami.backdoor.pwrStateResidencyTicks::UNDEFINED   7335333000                       # Cumulative time (in ticks) in various power states
system.tsunami.cchip.pwrStateResidencyTicks::UNDEFINED   7335333000                       # Cumulative time (in ticks) in various power states
system.tsunami.pchip.pwrStateResidencyTicks::UNDEFINED   7335333000                       # Cumulative time (in ticks) in various power states
system.tsunami.ethernet.pwrStateResidencyTicks::UNDEFINED   7335333000                       # Cumulative time (in ticks) in various power states
system.tsunami.ethernet.descDMAReads                0                       # Number of descriptors the device read w/ DMA
system.tsunami.ethernet.descDMAWrites               0                       # Number of descriptors the device wrote w/ DMA
system.tsunami.ethernet.descDmaReadBytes            0                       # number of descriptor bytes read w/ DMA
system.tsunami.ethernet.descDmaWriteBytes            0                       # number of descriptor bytes write w/ DMA
system.tsunami.ethernet.postedSwi                   0                       # number of software interrupts posted to CPU
system.tsunami.ethernet.coalescedSwi              nan                       # average number of Swi's coalesced into each post
system.tsunami.ethernet.totalSwi                    0                       # total number of Swi written to ISR
system.tsunami.ethernet.postedRxIdle                0                       # number of rxIdle interrupts posted to CPU
system.tsunami.ethernet.coalescedRxIdle           nan                       # average number of RxIdle's coalesced into each post
system.tsunami.ethernet.totalRxIdle                 0                       # total number of RxIdle written to ISR
system.tsunami.ethernet.postedRxOk                  0                       # number of RxOk interrupts posted to CPU
system.tsunami.ethernet.coalescedRxOk             nan                       # average number of RxOk's coalesced into each post
system.tsunami.ethernet.totalRxOk                   0                       # total number of RxOk written to ISR
system.tsunami.ethernet.postedRxDesc                0                       # number of RxDesc interrupts posted to CPU
system.tsunami.ethernet.coalescedRxDesc           nan                       # average number of RxDesc's coalesced into each post
system.tsunami.ethernet.totalRxDesc                 0                       # total number of RxDesc written to ISR
system.tsunami.ethernet.postedTxOk                  0                       # number of TxOk interrupts posted to CPU
system.tsunami.ethernet.coalescedTxOk             nan                       # average number of TxOk's coalesced into each post
system.tsunami.ethernet.totalTxOk                   0                       # total number of TxOk written to ISR
system.tsunami.ethernet.postedTxIdle                0                       # number of TxIdle interrupts posted to CPU
system.tsunami.ethernet.coalescedTxIdle           nan                       # average number of TxIdle's coalesced into each post
system.tsunami.ethernet.totalTxIdle                 0                       # total number of TxIdle written to ISR
system.tsunami.ethernet.postedTxDesc                0                       # number of TxDesc interrupts posted to CPU
system.tsunami.ethernet.coalescedTxDesc           nan                       # average number of TxDesc's coalesced into each post
system.tsunami.ethernet.totalTxDesc                 0                       # total number of TxDesc written to ISR
system.tsunami.ethernet.postedRxOrn                 0                       # number of RxOrn posted to CPU
system.tsunami.ethernet.coalescedRxOrn            nan                       # average number of RxOrn's coalesced into each post
system.tsunami.ethernet.totalRxOrn                  0                       # total number of RxOrn written to ISR
system.tsunami.ethernet.coalescedTotal            nan                       # average number of interrupts coalesced into each post
system.tsunami.ethernet.postedInterrupts            0                       # number of posts to CPU
system.tsunami.ethernet.droppedPackets              0                       # number of packets dropped
system.tsunami.fake_OROM.pwrStateResidencyTicks::UNDEFINED   7335333000                       # Cumulative time (in ticks) in various power states
system.tsunami.fake_ata0.pwrStateResidencyTicks::UNDEFINED   7335333000                       # Cumulative time (in ticks) in various power states
system.tsunami.fake_ata1.pwrStateResidencyTicks::UNDEFINED   7335333000                       # Cumulative time (in ticks) in various power states
system.tsunami.fake_pnp_addr.pwrStateResidencyTicks::UNDEFINED   7335333000                       # Cumulative time (in ticks) in various power states
system.tsunami.fake_pnp_read0.pwrStateResidencyTicks::UNDEFINED   7335333000                       # Cumulative time (in ticks) in various power states
system.tsunami.fake_pnp_read1.pwrStateResidencyTicks::UNDEFINED   7335333000                       # Cumulative time (in ticks) in various power states
system.tsunami.fake_pnp_read2.pwrStateResidencyTicks::UNDEFINED   7335333000                       # Cumulative time (in ticks) in various power states
system.tsunami.fake_pnp_read3.pwrStateResidencyTicks::UNDEFINED   7335333000                       # Cumulative time (in ticks) in various power states
system.tsunami.fake_pnp_read4.pwrStateResidencyTicks::UNDEFINED   7335333000                       # Cumulative time (in ticks) in various power states
system.tsunami.fake_pnp_read5.pwrStateResidencyTicks::UNDEFINED   7335333000                       # Cumulative time (in ticks) in various power states
system.tsunami.fake_pnp_read6.pwrStateResidencyTicks::UNDEFINED   7335333000                       # Cumulative time (in ticks) in various power states
system.tsunami.fake_pnp_read7.pwrStateResidencyTicks::UNDEFINED   7335333000                       # Cumulative time (in ticks) in various power states
system.tsunami.fake_pnp_write.pwrStateResidencyTicks::UNDEFINED   7335333000                       # Cumulative time (in ticks) in various power states
system.tsunami.fake_ppc.pwrStateResidencyTicks::UNDEFINED   7335333000                       # Cumulative time (in ticks) in various power states
system.tsunami.fake_sm_chip.pwrStateResidencyTicks::UNDEFINED   7335333000                       # Cumulative time (in ticks) in various power states
system.tsunami.fake_uart1.pwrStateResidencyTicks::UNDEFINED   7335333000                       # Cumulative time (in ticks) in various power states
system.tsunami.fake_uart2.pwrStateResidencyTicks::UNDEFINED   7335333000                       # Cumulative time (in ticks) in various power states
system.tsunami.fake_uart3.pwrStateResidencyTicks::UNDEFINED   7335333000                       # Cumulative time (in ticks) in various power states
system.tsunami.fake_uart4.pwrStateResidencyTicks::UNDEFINED   7335333000                       # Cumulative time (in ticks) in various power states
system.tsunami.fb.pwrStateResidencyTicks::UNDEFINED   7335333000                       # Cumulative time (in ticks) in various power states
system.tsunami.ide.pwrStateResidencyTicks::UNDEFINED   7335333000                       # Cumulative time (in ticks) in various power states
system.tsunami.io.pwrStateResidencyTicks::UNDEFINED   7335333000                       # Cumulative time (in ticks) in various power states
system.tsunami.uart.pwrStateResidencyTicks::UNDEFINED   7335333000                       # Cumulative time (in ticks) in various power states

---------- End Simulation Statistics   ----------
