
---------- Begin Simulation Statistics ----------
sim_seconds                                  2.537696                       # Number of seconds simulated
sim_ticks                                2537695529500                       # Number of ticks simulated
final_tick                               2537695529500                       # Number of ticks from beginning of simulation (restored from checkpoints and never reset)
sim_freq                                 1000000000000                       # Frequency of simulated ticks
host_inst_rate                                 225793                       # Simulator instruction rate (inst/s)
host_op_rate                                   225793                       # Simulator op (including micro ops) rate (op/s)
host_tick_rate                             5090755549                       # Simulator tick rate (ticks/s)
host_mem_usage                                 756844                       # Number of bytes of host memory used
host_seconds                                   498.49                       # Real time elapsed on the host
sim_insts                                   112555569                       # Number of instructions simulated
sim_ops                                     112555569                       # Number of ops (including micro ops) simulated
system.voltage_domain.voltage                       1                       # Voltage in Volts
system.clk_domain.clock                          1000                       # Clock period in ticks
system.mem_ctrls.pwrStateResidencyTicks::UNDEFINED 2537695529500                       # Cumulative time (in ticks) in various power states
system.mem_ctrls.bytes_read::cpu0.inst         544016                       # Number of bytes read from this memory
system.mem_ctrls.bytes_read::cpu0.data       16734640                       # Number of bytes read from this memory
system.mem_ctrls.bytes_read::cpu1.inst         106992                       # Number of bytes read from this memory
system.mem_ctrls.bytes_read::cpu1.data         616160                       # Number of bytes read from this memory
system.mem_ctrls.bytes_read::cpu2.inst         521792                       # Number of bytes read from this memory
system.mem_ctrls.bytes_read::cpu2.data        3071728                       # Number of bytes read from this memory
system.mem_ctrls.bytes_read::cpu3.inst          69552                       # Number of bytes read from this memory
system.mem_ctrls.bytes_read::cpu3.data         512880                       # Number of bytes read from this memory
system.mem_ctrls.bytes_read::tsunami.ide         4048                       # Number of bytes read from this memory
system.mem_ctrls.bytes_read::total           22181808                       # Number of bytes read from this memory
system.mem_ctrls.bytes_inst_read::cpu0.inst       544016                       # Number of instructions bytes read from this memory
system.mem_ctrls.bytes_inst_read::cpu1.inst       106992                       # Number of instructions bytes read from this memory
system.mem_ctrls.bytes_inst_read::cpu2.inst       521792                       # Number of instructions bytes read from this memory
system.mem_ctrls.bytes_inst_read::cpu3.inst        69552                       # Number of instructions bytes read from this memory
system.mem_ctrls.bytes_inst_read::total       1242352                       # Number of instructions bytes read from this memory
system.mem_ctrls.bytes_written::writebacks     18682800                       # Number of bytes written to this memory
system.mem_ctrls.bytes_written::total        18682800                       # Number of bytes written to this memory
system.mem_ctrls.num_reads::cpu0.inst           34001                       # Number of read requests responded to by this memory
system.mem_ctrls.num_reads::cpu0.data         1045915                       # Number of read requests responded to by this memory
system.mem_ctrls.num_reads::cpu1.inst            6687                       # Number of read requests responded to by this memory
system.mem_ctrls.num_reads::cpu1.data           38510                       # Number of read requests responded to by this memory
system.mem_ctrls.num_reads::cpu2.inst           32612                       # Number of read requests responded to by this memory
system.mem_ctrls.num_reads::cpu2.data          191983                       # Number of read requests responded to by this memory
system.mem_ctrls.num_reads::cpu3.inst            4347                       # Number of read requests responded to by this memory
system.mem_ctrls.num_reads::cpu3.data           32055                       # Number of read requests responded to by this memory
system.mem_ctrls.num_reads::tsunami.ide           253                       # Number of read requests responded to by this memory
system.mem_ctrls.num_reads::total             1386363                       # Number of read requests responded to by this memory
system.mem_ctrls.num_writes::writebacks       1167675                       # Number of write requests responded to by this memory
system.mem_ctrls.num_writes::total            1167675                       # Number of write requests responded to by this memory
system.mem_ctrls.bw_read::cpu0.inst            214374                       # Total read bandwidth from this memory (bytes/s)
system.mem_ctrls.bw_read::cpu0.data           6594424                       # Total read bandwidth from this memory (bytes/s)
system.mem_ctrls.bw_read::cpu1.inst             42161                       # Total read bandwidth from this memory (bytes/s)
system.mem_ctrls.bw_read::cpu1.data            242803                       # Total read bandwidth from this memory (bytes/s)
system.mem_ctrls.bw_read::cpu2.inst            205616                       # Total read bandwidth from this memory (bytes/s)
system.mem_ctrls.bw_read::cpu2.data           1210440                       # Total read bandwidth from this memory (bytes/s)
system.mem_ctrls.bw_read::cpu3.inst             27408                       # Total read bandwidth from this memory (bytes/s)
system.mem_ctrls.bw_read::cpu3.data            202105                       # Total read bandwidth from this memory (bytes/s)
system.mem_ctrls.bw_read::tsunami.ide            1595                       # Total read bandwidth from this memory (bytes/s)
system.mem_ctrls.bw_read::total               8740926                       # Total read bandwidth from this memory (bytes/s)
system.mem_ctrls.bw_inst_read::cpu0.inst       214374                       # Instruction read bandwidth from this memory (bytes/s)
system.mem_ctrls.bw_inst_read::cpu1.inst        42161                       # Instruction read bandwidth from this memory (bytes/s)
system.mem_ctrls.bw_inst_read::cpu2.inst       205616                       # Instruction read bandwidth from this memory (bytes/s)
system.mem_ctrls.bw_inst_read::cpu3.inst        27408                       # Instruction read bandwidth from this memory (bytes/s)
system.mem_ctrls.bw_inst_read::total           489559                       # Instruction read bandwidth from this memory (bytes/s)
system.mem_ctrls.bw_write::writebacks         7362113                       # Write bandwidth from this memory (bytes/s)
system.mem_ctrls.bw_write::total              7362113                       # Write bandwidth from this memory (bytes/s)
system.mem_ctrls.bw_total::writebacks         7362113                       # Total bandwidth to/from this memory (bytes/s)
system.mem_ctrls.bw_total::cpu0.inst           214374                       # Total bandwidth to/from this memory (bytes/s)
system.mem_ctrls.bw_total::cpu0.data          6594424                       # Total bandwidth to/from this memory (bytes/s)
system.mem_ctrls.bw_total::cpu1.inst            42161                       # Total bandwidth to/from this memory (bytes/s)
system.mem_ctrls.bw_total::cpu1.data           242803                       # Total bandwidth to/from this memory (bytes/s)
system.mem_ctrls.bw_total::cpu2.inst           205616                       # Total bandwidth to/from this memory (bytes/s)
system.mem_ctrls.bw_total::cpu2.data          1210440                       # Total bandwidth to/from this memory (bytes/s)
system.mem_ctrls.bw_total::cpu3.inst            27408                       # Total bandwidth to/from this memory (bytes/s)
system.mem_ctrls.bw_total::cpu3.data           202105                       # Total bandwidth to/from this memory (bytes/s)
system.mem_ctrls.bw_total::tsunami.ide           1595                       # Total bandwidth to/from this memory (bytes/s)
system.mem_ctrls.bw_total::total             16103038                       # Total bandwidth to/from this memory (bytes/s)
system.mem_ctrls.readReqs                     1386363                       # Number of read requests accepted
system.mem_ctrls.writeReqs                    1167675                       # Number of write requests accepted
system.mem_ctrls.readBursts                   1386363                       # Number of DRAM read bursts, including those serviced by the write queue
system.mem_ctrls.writeBursts                  1167675                       # Number of DRAM write bursts, including those merged in the write queue
system.mem_ctrls.bytesReadDRAM               88713152                       # Total number of bytes read from DRAM
system.mem_ctrls.bytesReadWrQ                   14080                       # Total number of bytes read from write queue
system.mem_ctrls.bytesWritten                50817472                       # Total number of bytes written to DRAM
system.mem_ctrls.bytesReadSys                22181808                       # Total read bytes from the system interface side
system.mem_ctrls.bytesWrittenSys             18682800                       # Total written bytes from the system interface side
system.mem_ctrls.servicedByWrQ                    220                       # Number of DRAM read bursts serviced by the write queue
system.mem_ctrls.mergedWrBursts                373621                       # Number of DRAM write bursts merged with an existing one
system.mem_ctrls.neitherReadNorWriteReqs            0                       # Number of requests that are neither read nor write
system.mem_ctrls.perBankRdBursts::0             84506                       # Per bank write bursts
system.mem_ctrls.perBankRdBursts::1             87513                       # Per bank write bursts
system.mem_ctrls.perBankRdBursts::2             86820                       # Per bank write bursts
system.mem_ctrls.perBankRdBursts::3             86367                       # Per bank write bursts
system.mem_ctrls.perBankRdBursts::4             81781                       # Per bank write bursts
system.mem_ctrls.perBankRdBursts::5             86743                       # Per bank write bursts
system.mem_ctrls.perBankRdBursts::6             91644                       # Per bank write bursts
system.mem_ctrls.perBankRdBursts::7             90108                       # Per bank write bursts
system.mem_ctrls.perBankRdBursts::8             86503                       # Per bank write bursts
system.mem_ctrls.perBankRdBursts::9             84796                       # Per bank write bursts
system.mem_ctrls.perBankRdBursts::10            85963                       # Per bank write bursts
system.mem_ctrls.perBankRdBursts::11            86027                       # Per bank write bursts
system.mem_ctrls.perBankRdBursts::12            85873                       # Per bank write bursts
system.mem_ctrls.perBankRdBursts::13            85550                       # Per bank write bursts
system.mem_ctrls.perBankRdBursts::14            86853                       # Per bank write bursts
system.mem_ctrls.perBankRdBursts::15            89096                       # Per bank write bursts
system.mem_ctrls.perBankWrBursts::0             50604                       # Per bank write bursts
system.mem_ctrls.perBankWrBursts::1             51050                       # Per bank write bursts
system.mem_ctrls.perBankWrBursts::2             51447                       # Per bank write bursts
system.mem_ctrls.perBankWrBursts::3             51302                       # Per bank write bursts
system.mem_ctrls.perBankWrBursts::4             48025                       # Per bank write bursts
system.mem_ctrls.perBankWrBursts::5             49991                       # Per bank write bursts
system.mem_ctrls.perBankWrBursts::6             51027                       # Per bank write bursts
system.mem_ctrls.perBankWrBursts::7             53262                       # Per bank write bursts
system.mem_ctrls.perBankWrBursts::8             46926                       # Per bank write bursts
system.mem_ctrls.perBankWrBursts::9             48489                       # Per bank write bursts
system.mem_ctrls.perBankWrBursts::10            44577                       # Per bank write bursts
system.mem_ctrls.perBankWrBursts::11            47970                       # Per bank write bursts
system.mem_ctrls.perBankWrBursts::12            46208                       # Per bank write bursts
system.mem_ctrls.perBankWrBursts::13            49226                       # Per bank write bursts
system.mem_ctrls.perBankWrBursts::14            50546                       # Per bank write bursts
system.mem_ctrls.perBankWrBursts::15            53373                       # Per bank write bursts
system.mem_ctrls.numRdRetry                         0                       # Number of times read queue was full causing retry
system.mem_ctrls.numWrRetry                         0                       # Number of times write queue was full causing retry
system.mem_ctrls.totGap                  2537695397500                       # Total gap between requests
system.mem_ctrls.readPktSize::0                     0                       # Read request sizes (log2)
system.mem_ctrls.readPktSize::1                     0                       # Read request sizes (log2)
system.mem_ctrls.readPktSize::2                     0                       # Read request sizes (log2)
system.mem_ctrls.readPktSize::3                     0                       # Read request sizes (log2)
system.mem_ctrls.readPktSize::4               1386363                       # Read request sizes (log2)
system.mem_ctrls.readPktSize::5                     0                       # Read request sizes (log2)
system.mem_ctrls.readPktSize::6                     0                       # Read request sizes (log2)
system.mem_ctrls.writePktSize::0                    0                       # Write request sizes (log2)
system.mem_ctrls.writePktSize::1                    0                       # Write request sizes (log2)
system.mem_ctrls.writePktSize::2                    0                       # Write request sizes (log2)
system.mem_ctrls.writePktSize::3                    0                       # Write request sizes (log2)
system.mem_ctrls.writePktSize::4              1167675                       # Write request sizes (log2)
system.mem_ctrls.writePktSize::5                    0                       # Write request sizes (log2)
system.mem_ctrls.writePktSize::6                    0                       # Write request sizes (log2)
system.mem_ctrls.rdQLenPdf::0                 1381757                       # What read queue length does an incoming req see
system.mem_ctrls.rdQLenPdf::1                    3947                       # What read queue length does an incoming req see
system.mem_ctrls.rdQLenPdf::2                     209                       # What read queue length does an incoming req see
system.mem_ctrls.rdQLenPdf::3                      10                       # What read queue length does an incoming req see
system.mem_ctrls.rdQLenPdf::4                      16                       # What read queue length does an incoming req see
system.mem_ctrls.rdQLenPdf::5                      17                       # What read queue length does an incoming req see
system.mem_ctrls.rdQLenPdf::6                      22                       # What read queue length does an incoming req see
system.mem_ctrls.rdQLenPdf::7                      18                       # What read queue length does an incoming req see
system.mem_ctrls.rdQLenPdf::8                      56                       # What read queue length does an incoming req see
system.mem_ctrls.rdQLenPdf::9                      49                       # What read queue length does an incoming req see
system.mem_ctrls.rdQLenPdf::10                     14                       # What read queue length does an incoming req see
system.mem_ctrls.rdQLenPdf::11                      7                       # What read queue length does an incoming req see
system.mem_ctrls.rdQLenPdf::12                      7                       # What read queue length does an incoming req see
system.mem_ctrls.rdQLenPdf::13                      2                       # What read queue length does an incoming req see
system.mem_ctrls.rdQLenPdf::14                      2                       # What read queue length does an incoming req see
system.mem_ctrls.rdQLenPdf::15                      2                       # What read queue length does an incoming req see
system.mem_ctrls.rdQLenPdf::16                      2                       # What read queue length does an incoming req see
system.mem_ctrls.rdQLenPdf::17                      2                       # What read queue length does an incoming req see
system.mem_ctrls.rdQLenPdf::18                      2                       # What read queue length does an incoming req see
system.mem_ctrls.rdQLenPdf::19                      2                       # What read queue length does an incoming req see
system.mem_ctrls.rdQLenPdf::20                      0                       # What read queue length does an incoming req see
system.mem_ctrls.rdQLenPdf::21                      0                       # What read queue length does an incoming req see
system.mem_ctrls.rdQLenPdf::22                      0                       # What read queue length does an incoming req see
system.mem_ctrls.rdQLenPdf::23                      0                       # What read queue length does an incoming req see
system.mem_ctrls.rdQLenPdf::24                      0                       # What read queue length does an incoming req see
system.mem_ctrls.rdQLenPdf::25                      0                       # What read queue length does an incoming req see
system.mem_ctrls.rdQLenPdf::26                      0                       # What read queue length does an incoming req see
system.mem_ctrls.rdQLenPdf::27                      0                       # What read queue length does an incoming req see
system.mem_ctrls.rdQLenPdf::28                      0                       # What read queue length does an incoming req see
system.mem_ctrls.rdQLenPdf::29                      0                       # What read queue length does an incoming req see
system.mem_ctrls.rdQLenPdf::30                      0                       # What read queue length does an incoming req see
system.mem_ctrls.rdQLenPdf::31                      0                       # What read queue length does an incoming req see
system.mem_ctrls.wrQLenPdf::0                       1                       # What write queue length does an incoming req see
system.mem_ctrls.wrQLenPdf::1                       1                       # What write queue length does an incoming req see
system.mem_ctrls.wrQLenPdf::2                       1                       # What write queue length does an incoming req see
system.mem_ctrls.wrQLenPdf::3                       1                       # What write queue length does an incoming req see
system.mem_ctrls.wrQLenPdf::4                       1                       # What write queue length does an incoming req see
system.mem_ctrls.wrQLenPdf::5                       1                       # What write queue length does an incoming req see
system.mem_ctrls.wrQLenPdf::6                       1                       # What write queue length does an incoming req see
system.mem_ctrls.wrQLenPdf::7                       1                       # What write queue length does an incoming req see
system.mem_ctrls.wrQLenPdf::8                       1                       # What write queue length does an incoming req see
system.mem_ctrls.wrQLenPdf::9                       1                       # What write queue length does an incoming req see
system.mem_ctrls.wrQLenPdf::10                      1                       # What write queue length does an incoming req see
system.mem_ctrls.wrQLenPdf::11                      1                       # What write queue length does an incoming req see
system.mem_ctrls.wrQLenPdf::12                      1                       # What write queue length does an incoming req see
system.mem_ctrls.wrQLenPdf::13                      1                       # What write queue length does an incoming req see
system.mem_ctrls.wrQLenPdf::14                      1                       # What write queue length does an incoming req see
system.mem_ctrls.wrQLenPdf::15                   8257                       # What write queue length does an incoming req see
system.mem_ctrls.wrQLenPdf::16                  10417                       # What write queue length does an incoming req see
system.mem_ctrls.wrQLenPdf::17                  48424                       # What write queue length does an incoming req see
system.mem_ctrls.wrQLenPdf::18                  48487                       # What write queue length does an incoming req see
system.mem_ctrls.wrQLenPdf::19                  48812                       # What write queue length does an incoming req see
system.mem_ctrls.wrQLenPdf::20                  48571                       # What write queue length does an incoming req see
system.mem_ctrls.wrQLenPdf::21                  48357                       # What write queue length does an incoming req see
system.mem_ctrls.wrQLenPdf::22                  48217                       # What write queue length does an incoming req see
system.mem_ctrls.wrQLenPdf::23                  48197                       # What write queue length does an incoming req see
system.mem_ctrls.wrQLenPdf::24                  48193                       # What write queue length does an incoming req see
system.mem_ctrls.wrQLenPdf::25                  48753                       # What write queue length does an incoming req see
system.mem_ctrls.wrQLenPdf::26                  48562                       # What write queue length does an incoming req see
system.mem_ctrls.wrQLenPdf::27                  48330                       # What write queue length does an incoming req see
system.mem_ctrls.wrQLenPdf::28                  48320                       # What write queue length does an incoming req see
system.mem_ctrls.wrQLenPdf::29                  48136                       # What write queue length does an incoming req see
system.mem_ctrls.wrQLenPdf::30                  48009                       # What write queue length does an incoming req see
system.mem_ctrls.wrQLenPdf::31                  48009                       # What write queue length does an incoming req see
system.mem_ctrls.wrQLenPdf::32                  47889                       # What write queue length does an incoming req see
system.mem_ctrls.wrQLenPdf::33                    203                       # What write queue length does an incoming req see
system.mem_ctrls.wrQLenPdf::34                    167                       # What write queue length does an incoming req see
system.mem_ctrls.wrQLenPdf::35                    145                       # What write queue length does an incoming req see
system.mem_ctrls.wrQLenPdf::36                    134                       # What write queue length does an incoming req see
system.mem_ctrls.wrQLenPdf::37                    127                       # What write queue length does an incoming req see
system.mem_ctrls.wrQLenPdf::38                    113                       # What write queue length does an incoming req see
system.mem_ctrls.wrQLenPdf::39                    108                       # What write queue length does an incoming req see
system.mem_ctrls.wrQLenPdf::40                    105                       # What write queue length does an incoming req see
system.mem_ctrls.wrQLenPdf::41                     96                       # What write queue length does an incoming req see
system.mem_ctrls.wrQLenPdf::42                     84                       # What write queue length does an incoming req see
system.mem_ctrls.wrQLenPdf::43                     92                       # What write queue length does an incoming req see
system.mem_ctrls.wrQLenPdf::44                     91                       # What write queue length does an incoming req see
system.mem_ctrls.wrQLenPdf::45                     82                       # What write queue length does an incoming req see
system.mem_ctrls.wrQLenPdf::46                     67                       # What write queue length does an incoming req see
system.mem_ctrls.wrQLenPdf::47                     76                       # What write queue length does an incoming req see
system.mem_ctrls.wrQLenPdf::48                     68                       # What write queue length does an incoming req see
system.mem_ctrls.wrQLenPdf::49                     59                       # What write queue length does an incoming req see
system.mem_ctrls.wrQLenPdf::50                     56                       # What write queue length does an incoming req see
system.mem_ctrls.wrQLenPdf::51                     54                       # What write queue length does an incoming req see
system.mem_ctrls.wrQLenPdf::52                     55                       # What write queue length does an incoming req see
system.mem_ctrls.wrQLenPdf::53                     45                       # What write queue length does an incoming req see
system.mem_ctrls.wrQLenPdf::54                     37                       # What write queue length does an incoming req see
system.mem_ctrls.wrQLenPdf::55                     25                       # What write queue length does an incoming req see
system.mem_ctrls.wrQLenPdf::56                      7                       # What write queue length does an incoming req see
system.mem_ctrls.wrQLenPdf::57                      3                       # What write queue length does an incoming req see
system.mem_ctrls.wrQLenPdf::58                      0                       # What write queue length does an incoming req see
system.mem_ctrls.wrQLenPdf::59                      0                       # What write queue length does an incoming req see
system.mem_ctrls.wrQLenPdf::60                      0                       # What write queue length does an incoming req see
system.mem_ctrls.wrQLenPdf::61                      0                       # What write queue length does an incoming req see
system.mem_ctrls.wrQLenPdf::62                      0                       # What write queue length does an incoming req see
system.mem_ctrls.wrQLenPdf::63                      0                       # What write queue length does an incoming req see
system.mem_ctrls.bytesPerActivate::samples       394110                       # Bytes accessed per row activation
system.mem_ctrls.bytesPerActivate::mean    354.039146                       # Bytes accessed per row activation
system.mem_ctrls.bytesPerActivate::gmean   200.883137                       # Bytes accessed per row activation
system.mem_ctrls.bytesPerActivate::stdev   365.698202                       # Bytes accessed per row activation
system.mem_ctrls.bytesPerActivate::0-127       140289     35.60%     35.60% # Bytes accessed per row activation
system.mem_ctrls.bytesPerActivate::128-255        88903     22.56%     58.15% # Bytes accessed per row activation
system.mem_ctrls.bytesPerActivate::256-383        37005      9.39%     67.54% # Bytes accessed per row activation
system.mem_ctrls.bytesPerActivate::384-511        18501      4.69%     72.24% # Bytes accessed per row activation
system.mem_ctrls.bytesPerActivate::512-639        13906      3.53%     75.77% # Bytes accessed per row activation
system.mem_ctrls.bytesPerActivate::640-767        10149      2.58%     78.34% # Bytes accessed per row activation
system.mem_ctrls.bytesPerActivate::768-895         8789      2.23%     80.57% # Bytes accessed per row activation
system.mem_ctrls.bytesPerActivate::896-1023         6550      1.66%     82.23% # Bytes accessed per row activation
system.mem_ctrls.bytesPerActivate::1024-1151        70018     17.77%    100.00% # Bytes accessed per row activation
system.mem_ctrls.bytesPerActivate::total       394110                       # Bytes accessed per row activation
system.mem_ctrls.rdPerTurnAround::samples        47773                       # Reads before turning the bus around for writes
system.mem_ctrls.rdPerTurnAround::mean      29.014464                       # Reads before turning the bus around for writes
system.mem_ctrls.rdPerTurnAround::stdev    443.537654                       # Reads before turning the bus around for writes
system.mem_ctrls.rdPerTurnAround::0-4095        47769     99.99%     99.99% # Reads before turning the bus around for writes
system.mem_ctrls.rdPerTurnAround::4096-8191            1      0.00%     99.99% # Reads before turning the bus around for writes
system.mem_ctrls.rdPerTurnAround::24576-28671            1      0.00%    100.00% # Reads before turning the bus around for writes
system.mem_ctrls.rdPerTurnAround::28672-32767            1      0.00%    100.00% # Reads before turning the bus around for writes
system.mem_ctrls.rdPerTurnAround::86016-90111            1      0.00%    100.00% # Reads before turning the bus around for writes
system.mem_ctrls.rdPerTurnAround::total         47773                       # Reads before turning the bus around for writes
system.mem_ctrls.wrPerTurnAround::samples        47773                       # Writes before turning the bus around for reads
system.mem_ctrls.wrPerTurnAround::mean      16.620748                       # Writes before turning the bus around for reads
system.mem_ctrls.wrPerTurnAround::gmean     16.535244                       # Writes before turning the bus around for reads
system.mem_ctrls.wrPerTurnAround::stdev      2.113960                       # Writes before turning the bus around for reads
system.mem_ctrls.wrPerTurnAround::16-17         39461     82.60%     82.60% # Writes before turning the bus around for reads
system.mem_ctrls.wrPerTurnAround::18-19          6595     13.80%     96.41% # Writes before turning the bus around for reads
system.mem_ctrls.wrPerTurnAround::20-21           491      1.03%     97.43% # Writes before turning the bus around for reads
system.mem_ctrls.wrPerTurnAround::22-23           402      0.84%     98.28% # Writes before turning the bus around for reads
system.mem_ctrls.wrPerTurnAround::24-25           364      0.76%     99.04% # Writes before turning the bus around for reads
system.mem_ctrls.wrPerTurnAround::26-27           267      0.56%     99.60% # Writes before turning the bus around for reads
system.mem_ctrls.wrPerTurnAround::28-29            74      0.15%     99.75% # Writes before turning the bus around for reads
system.mem_ctrls.wrPerTurnAround::30-31            12      0.03%     99.78% # Writes before turning the bus around for reads
system.mem_ctrls.wrPerTurnAround::32-33            14      0.03%     99.81% # Writes before turning the bus around for reads
system.mem_ctrls.wrPerTurnAround::34-35             4      0.01%     99.81% # Writes before turning the bus around for reads
system.mem_ctrls.wrPerTurnAround::36-37             8      0.02%     99.83% # Writes before turning the bus around for reads
system.mem_ctrls.wrPerTurnAround::38-39             6      0.01%     99.84% # Writes before turning the bus around for reads
system.mem_ctrls.wrPerTurnAround::40-41             5      0.01%     99.85% # Writes before turning the bus around for reads
system.mem_ctrls.wrPerTurnAround::42-43            15      0.03%     99.88% # Writes before turning the bus around for reads
system.mem_ctrls.wrPerTurnAround::44-45             4      0.01%     99.89% # Writes before turning the bus around for reads
system.mem_ctrls.wrPerTurnAround::46-47             6      0.01%     99.91% # Writes before turning the bus around for reads
system.mem_ctrls.wrPerTurnAround::48-49             6      0.01%     99.92% # Writes before turning the bus around for reads
system.mem_ctrls.wrPerTurnAround::50-51             4      0.01%     99.93% # Writes before turning the bus around for reads
system.mem_ctrls.wrPerTurnAround::52-53            12      0.03%     99.95% # Writes before turning the bus around for reads
system.mem_ctrls.wrPerTurnAround::54-55             8      0.02%     99.97% # Writes before turning the bus around for reads
system.mem_ctrls.wrPerTurnAround::56-57             6      0.01%     99.98% # Writes before turning the bus around for reads
system.mem_ctrls.wrPerTurnAround::58-59             2      0.00%     99.99% # Writes before turning the bus around for reads
system.mem_ctrls.wrPerTurnAround::60-61             3      0.01%     99.99% # Writes before turning the bus around for reads
system.mem_ctrls.wrPerTurnAround::66-67             1      0.00%     99.99% # Writes before turning the bus around for reads
system.mem_ctrls.wrPerTurnAround::68-69             1      0.00%    100.00% # Writes before turning the bus around for reads
system.mem_ctrls.wrPerTurnAround::76-77             1      0.00%    100.00% # Writes before turning the bus around for reads
system.mem_ctrls.wrPerTurnAround::78-79             1      0.00%    100.00% # Writes before turning the bus around for reads
system.mem_ctrls.wrPerTurnAround::total         47773                       # Writes before turning the bus around for reads
system.mem_ctrls.totQLat                  22088779472                       # Total ticks spent queuing
system.mem_ctrls.totMemAccLat             48078960722                       # Total ticks spent from burst creation until serviced by the DRAM
system.mem_ctrls.totBusLat                 6930715000                       # Total ticks spent in databus transfers
system.mem_ctrls.avgQLat                     15935.43                       # Average queueing delay per DRAM burst
system.mem_ctrls.avgBusLat                    5000.00                       # Average bus latency per DRAM burst
system.mem_ctrls.avgMemAccLat                34685.43                       # Average memory access latency per DRAM burst
system.mem_ctrls.avgRdBW                        34.96                       # Average DRAM read bandwidth in MiByte/s
system.mem_ctrls.avgWrBW                        20.03                       # Average achieved write bandwidth in MiByte/s
system.mem_ctrls.avgRdBWSys                      8.74                       # Average system read bandwidth in MiByte/s
system.mem_ctrls.avgWrBWSys                      7.36                       # Average system write bandwidth in MiByte/s
system.mem_ctrls.peakBW                      12800.00                       # Theoretical peak bandwidth in MiByte/s
system.mem_ctrls.busUtil                         0.43                       # Data bus utilization in percentage
system.mem_ctrls.busUtilRead                     0.27                       # Data bus utilization in percentage for reads
system.mem_ctrls.busUtilWrite                    0.16                       # Data bus utilization in percentage for writes
system.mem_ctrls.avgRdQLen                       1.00                       # Average read queue length when enqueuing
system.mem_ctrls.avgWrQLen                      25.76                       # Average write queue length when enqueuing
system.mem_ctrls.readRowHits                  1232590                       # Number of row buffer hits during reads
system.mem_ctrls.writeRowHits                  553464                       # Number of row buffer hits during writes
system.mem_ctrls.readRowHitRate                 88.92                       # Row buffer hit rate for reads
system.mem_ctrls.writeRowHitRate                69.70                       # Row buffer hit rate for writes
system.mem_ctrls.avgGap                     993601.27                       # Average gap between requests
system.mem_ctrls.pageHitRate                    81.92                       # Row buffer hit rate, read and write combined
system.mem_ctrls_0.actEnergy               1444514820                       # Energy for activate commands per rank (pJ)
system.mem_ctrls_0.preEnergy                767774040                       # Energy for precharge commands per rank (pJ)
system.mem_ctrls_0.readEnergy              4965741480                       # Energy for read commands per rank (pJ)
system.mem_ctrls_0.writeEnergy             2123015760                       # Energy for write commands per rank (pJ)
system.mem_ctrls_0.refreshEnergy         20620557360.000004                       # Energy for refresh commands per rank (pJ)
system.mem_ctrls_0.actBackEnergy          30502616910                       # Energy for active background per rank (pJ)
system.mem_ctrls_0.preBackEnergy           1163791680                       # Energy for precharge background per rank (pJ)
system.mem_ctrls_0.actPowerDownEnergy     42995890020                       # Energy for active power-down per rank (pJ)
system.mem_ctrls_0.prePowerDownEnergy     23525594400                       # Energy for precharge power-down per rank (pJ)
system.mem_ctrls_0.selfRefreshEnergy     557654074920                       # Energy for self refresh per rank (pJ)
system.mem_ctrls_0.totalEnergy           685770780270                       # Total energy per rank (pJ)
system.mem_ctrls_0.averagePower            270.233672                       # Core power per rank (mW)
system.mem_ctrls_0.totalIdleTime         2467757144751                       # Total Idle time Per DRAM Rank
system.mem_ctrls_0.memoryStateTime::IDLE   1929028750                       # Time in different power states
system.mem_ctrls_0.memoryStateTime::REF    8753532000                       # Time in different power states
system.mem_ctrls_0.memoryStateTime::SREF 2312203299250                       # Time in different power states
system.mem_ctrls_0.memoryStateTime::PRE_PDN  61264643251                       # Time in different power states
system.mem_ctrls_0.memoryStateTime::ACT   59255663249                       # Time in different power states
system.mem_ctrls_0.memoryStateTime::ACT_PDN  94289363000                       # Time in different power states
system.mem_ctrls_1.actEnergy               1369444860                       # Energy for activate commands per rank (pJ)
system.mem_ctrls_1.preEnergy                727873410                       # Energy for precharge commands per rank (pJ)
system.mem_ctrls_1.readEnergy              4931319540                       # Energy for read commands per rank (pJ)
system.mem_ctrls_1.writeEnergy             2021784300                       # Energy for write commands per rank (pJ)
system.mem_ctrls_1.refreshEnergy         20450302080.000004                       # Energy for refresh commands per rank (pJ)
system.mem_ctrls_1.actBackEnergy          30450090840                       # Energy for active background per rank (pJ)
system.mem_ctrls_1.preBackEnergy           1152039840                       # Energy for precharge background per rank (pJ)
system.mem_ctrls_1.actPowerDownEnergy     42343722810                       # Energy for active power-down per rank (pJ)
system.mem_ctrls_1.prePowerDownEnergy     23373412800                       # Energy for precharge power-down per rank (pJ)
system.mem_ctrls_1.selfRefreshEnergy     558113618520                       # Energy for self refresh per rank (pJ)
system.mem_ctrls_1.totalEnergy           684941735460                       # Total energy per rank (pJ)
system.mem_ctrls_1.averagePower            269.906980                       # Core power per rank (mW)
system.mem_ctrls_1.totalIdleTime         2467895518750                       # Total Idle time Per DRAM Rank
system.mem_ctrls_1.memoryStateTime::IDLE   1927808250                       # Time in different power states
system.mem_ctrls_1.memoryStateTime::REF    8681266000                       # Time in different power states
system.mem_ctrls_1.memoryStateTime::SREF 2314173577500                       # Time in different power states
system.mem_ctrls_1.memoryStateTime::PRE_PDN  60868292500                       # Time in different power states
system.mem_ctrls_1.memoryStateTime::ACT   59185534750                       # Time in different power states
system.mem_ctrls_1.memoryStateTime::ACT_PDN  92859050500                       # Time in different power states
system.pwrStateResidencyTicks::UNDEFINED 2537695529500                       # Cumulative time (in ticks) in various power states
system.bridge.pwrStateResidencyTicks::UNDEFINED 2537695529500                       # Cumulative time (in ticks) in various power states
system.cpu_voltage_domain.voltage                   1                       # Voltage in Volts
system.cpu_clk_domain.clock                       500                       # Clock period in ticks
system.cpu0.dtb.fetch_hits                          0                       # ITB hits
system.cpu0.dtb.fetch_misses                        0                       # ITB misses
system.cpu0.dtb.fetch_acv                           0                       # ITB acv
system.cpu0.dtb.fetch_accesses                      0                       # ITB accesses
system.cpu0.dtb.read_hits                    11657708                       # DTB read hits
system.cpu0.dtb.read_misses                      3106                       # DTB read misses
system.cpu0.dtb.read_acv                            0                       # DTB read access violations
system.cpu0.dtb.read_accesses                  246038                       # DTB read accesses
system.cpu0.dtb.write_hits                    5672428                       # DTB write hits
system.cpu0.dtb.write_misses                      348                       # DTB write misses
system.cpu0.dtb.write_acv                          33                       # DTB write access violations
system.cpu0.dtb.write_accesses                 108494                       # DTB write accesses
system.cpu0.dtb.data_hits                    17330136                       # DTB hits
system.cpu0.dtb.data_misses                      3454                       # DTB misses
system.cpu0.dtb.data_acv                           33                       # DTB access violations
system.cpu0.dtb.data_accesses                  354532                       # DTB accesses
system.cpu0.itb.fetch_hits                    2557957                       # ITB hits
system.cpu0.itb.fetch_misses                     1280                       # ITB misses
system.cpu0.itb.fetch_acv                           0                       # ITB acv
system.cpu0.itb.fetch_accesses                2559237                       # ITB accesses
system.cpu0.itb.read_hits                           0                       # DTB read hits
system.cpu0.itb.read_misses                         0                       # DTB read misses
system.cpu0.itb.read_acv                            0                       # DTB read access violations
system.cpu0.itb.read_accesses                       0                       # DTB read accesses
system.cpu0.itb.write_hits                          0                       # DTB write hits
system.cpu0.itb.write_misses                        0                       # DTB write misses
system.cpu0.itb.write_acv                           0                       # DTB write access violations
system.cpu0.itb.write_accesses                      0                       # DTB write accesses
system.cpu0.itb.data_hits                           0                       # DTB hits
system.cpu0.itb.data_misses                         0                       # DTB misses
system.cpu0.itb.data_acv                            0                       # DTB access violations
system.cpu0.itb.data_accesses                       0                       # DTB accesses
system.cpu0.numPwrStateTransitions              14184                       # Number of power state transitions
system.cpu0.pwrStateClkGateDist::samples         7092                       # Distribution of time spent in the clock gated state
system.cpu0.pwrStateClkGateDist::mean    323577318.104907                       # Distribution of time spent in the clock gated state
system.cpu0.pwrStateClkGateDist::stdev   449147520.841993                       # Distribution of time spent in the clock gated state
system.cpu0.pwrStateClkGateDist::1000-5e+10         7092    100.00%    100.00% # Distribution of time spent in the clock gated state
system.cpu0.pwrStateClkGateDist::min_value       354000                       # Distribution of time spent in the clock gated state
system.cpu0.pwrStateClkGateDist::max_value   2000000000                       # Distribution of time spent in the clock gated state
system.cpu0.pwrStateClkGateDist::total           7092                       # Distribution of time spent in the clock gated state
system.cpu0.pwrStateResidencyTicks::ON   242885189500                       # Cumulative time (in ticks) in various power states
system.cpu0.pwrStateResidencyTicks::CLK_GATED 2294810340000                       # Cumulative time (in ticks) in various power states
system.cpu0.numCycles                      5075391059                       # number of cpu cycles simulated
system.cpu0.numWorkItemsStarted                     0                       # number of work items this cpu started
system.cpu0.numWorkItemsCompleted                   0                       # number of work items this cpu completed
system.cpu0.kern.inst.arm                           0                       # number of arm instructions executed
system.cpu0.kern.inst.quiesce                    7092                       # number of quiesce instructions executed
system.cpu0.kern.callpal::cserve                    1      0.00%      0.00% # number of callpals executed
system.cpu0.kern.callpal::wripir                 1069      0.83%      0.83% # number of callpals executed
system.cpu0.kern.callpal::wrmces                    1      0.00%      0.83% # number of callpals executed
system.cpu0.kern.callpal::wrfen                     1      0.00%      0.83% # number of callpals executed
system.cpu0.kern.callpal::wrvptptr                  1      0.00%      0.83% # number of callpals executed
system.cpu0.kern.callpal::swpctx                 2076      1.60%      2.43% # number of callpals executed
system.cpu0.kern.callpal::tbi                      11      0.01%      2.44% # number of callpals executed
system.cpu0.kern.callpal::wrent                     7      0.01%      2.44% # number of callpals executed
system.cpu0.kern.callpal::swpipl               116879     90.22%     92.67% # number of callpals executed
system.cpu0.kern.callpal::rdps                   5340      4.12%     96.79% # number of callpals executed
system.cpu0.kern.callpal::wrkgp                     1      0.00%     96.79% # number of callpals executed
system.cpu0.kern.callpal::wrusp                     4      0.00%     96.79% # number of callpals executed
system.cpu0.kern.callpal::rdusp                     3      0.00%     96.80% # number of callpals executed
system.cpu0.kern.callpal::whami                     2      0.00%     96.80% # number of callpals executed
system.cpu0.kern.callpal::rti                    3939      3.04%     99.84% # number of callpals executed
system.cpu0.kern.callpal::callsys                 151      0.12%     99.96% # number of callpals executed
system.cpu0.kern.callpal::imb                      57      0.04%    100.00% # number of callpals executed
system.cpu0.kern.callpal::total                129543                       # number of callpals executed
system.cpu0.kern.inst.hwrei                    137620                       # number of hwrei instructions executed
system.cpu0.kern.mode_switch::kernel             5878                       # number of protection mode switches
system.cpu0.kern.mode_switch::user                485                       # number of protection mode switches
system.cpu0.kern.mode_switch::idle                  0                       # number of protection mode switches
system.cpu0.kern.mode_good::kernel                484                      
system.cpu0.kern.mode_good::user                  485                      
system.cpu0.kern.mode_good::idle                    0                      
system.cpu0.kern.mode_switch_good::kernel     0.082341                       # fraction of useful protection mode switches
system.cpu0.kern.mode_switch_good::user             1                       # fraction of useful protection mode switches
system.cpu0.kern.mode_switch_good::idle           nan                       # fraction of useful protection mode switches
system.cpu0.kern.mode_switch_good::total     0.152287                       # fraction of useful protection mode switches
system.cpu0.kern.mode_ticks::kernel      2534504469500     99.87%     99.87% # number of ticks spent at the given mode
system.cpu0.kern.mode_ticks::user          3189249000      0.13%    100.00% # number of ticks spent at the given mode
system.cpu0.kern.mode_ticks::idle                   0      0.00%    100.00% # number of ticks spent at the given mode
system.cpu0.kern.swap_context                    2077                       # number of times the context was actually changed
system.cpu0.kern.ipl_count::0                   47272     38.08%     38.08% # number of times we switched to this ipl
system.cpu0.kern.ipl_count::21                     11      0.01%     38.09% # number of times we switched to this ipl
system.cpu0.kern.ipl_count::22                   2541      2.05%     40.14% # number of times we switched to this ipl
system.cpu0.kern.ipl_count::30                    756      0.61%     40.75% # number of times we switched to this ipl
system.cpu0.kern.ipl_count::31                  73547     59.25%    100.00% # number of times we switched to this ipl
system.cpu0.kern.ipl_count::total              124127                       # number of times we switched to this ipl
system.cpu0.kern.ipl_good::0                    47111     48.68%     48.68% # number of times we switched to this ipl from a different ipl
system.cpu0.kern.ipl_good::21                      11      0.01%     48.69% # number of times we switched to this ipl from a different ipl
system.cpu0.kern.ipl_good::22                    2541      2.63%     51.32% # number of times we switched to this ipl from a different ipl
system.cpu0.kern.ipl_good::30                     756      0.78%     52.10% # number of times we switched to this ipl from a different ipl
system.cpu0.kern.ipl_good::31                   46355     47.90%    100.00% # number of times we switched to this ipl from a different ipl
system.cpu0.kern.ipl_good::total                96774                       # number of times we switched to this ipl from a different ipl
system.cpu0.kern.ipl_ticks::0            2439276339500     96.12%     96.12% # number of cycles we spent at this ipl
system.cpu0.kern.ipl_ticks::21               11080500      0.00%     96.12% # number of cycles we spent at this ipl
system.cpu0.kern.ipl_ticks::22             1575502000      0.06%     96.18% # number of cycles we spent at this ipl
system.cpu0.kern.ipl_ticks::30             1088653000      0.04%     96.23% # number of cycles we spent at this ipl
system.cpu0.kern.ipl_ticks::31            95742145500      3.77%    100.00% # number of cycles we spent at this ipl
system.cpu0.kern.ipl_ticks::total        2537693720500                       # number of cycles we spent at this ipl
system.cpu0.kern.ipl_used::0                 0.996594                       # fraction of swpipl calls that actually changed the ipl
system.cpu0.kern.ipl_used::21                       1                       # fraction of swpipl calls that actually changed the ipl
system.cpu0.kern.ipl_used::22                       1                       # fraction of swpipl calls that actually changed the ipl
system.cpu0.kern.ipl_used::30                       1                       # fraction of swpipl calls that actually changed the ipl
system.cpu0.kern.ipl_used::31                0.630277                       # fraction of swpipl calls that actually changed the ipl
system.cpu0.kern.ipl_used::total             0.779637                       # fraction of swpipl calls that actually changed the ipl
system.cpu0.committedInsts                   68408889                       # Number of instructions committed
system.cpu0.committedOps                     68408889                       # Number of ops (including micro ops) committed
system.cpu0.num_int_alu_accesses             66087930                       # Number of integer alu accesses
system.cpu0.num_fp_alu_accesses                235108                       # Number of float alu accesses
system.cpu0.num_vec_alu_accesses                    0                       # Number of vector alu accesses
system.cpu0.num_func_calls                    2233400                       # number of times a function call or return occured
system.cpu0.num_conditional_control_insts      9108940                       # number of instructions that are conditional controls
system.cpu0.num_int_insts                    66087930                       # number of integer instructions
system.cpu0.num_fp_insts                       235108                       # number of float instructions
system.cpu0.num_vec_insts                           0                       # number of vector instructions
system.cpu0.num_int_register_reads           89749988                       # number of times the integer registers were read
system.cpu0.num_int_register_writes          50374785                       # number of times the integer registers were written
system.cpu0.num_fp_register_reads               81337                       # number of times the floating registers were read
system.cpu0.num_fp_register_writes              82753                       # number of times the floating registers were written
system.cpu0.num_vec_register_reads                  0                       # number of times the vector registers were read
system.cpu0.num_vec_register_writes                 0                       # number of times the vector registers were written
system.cpu0.num_mem_refs                     17355981                       # number of memory refs
system.cpu0.num_load_insts                   11672576                       # Number of load instructions
system.cpu0.num_store_insts                   5683405                       # Number of store instructions
system.cpu0.num_idle_cycles              4589620679.998191                       # Number of idle cycles
system.cpu0.num_busy_cycles              485770379.001809                       # Number of busy cycles
system.cpu0.not_idle_fraction                0.095711                       # Percentage of non-idle cycles
system.cpu0.idle_fraction                    0.904289                       # Percentage of idle cycles
system.cpu0.Branches                         11764922                       # Number of branches fetched
system.cpu0.op_class::No_OpClass              1398167      2.04%      2.04% # Class of executed instruction
system.cpu0.op_class::IntAlu                 48474172     70.86%     72.90% # Class of executed instruction
system.cpu0.op_class::IntMult                  152203      0.22%     73.12% # Class of executed instruction
system.cpu0.op_class::IntDiv                        0      0.00%     73.12% # Class of executed instruction
system.cpu0.op_class::FloatAdd                  95598      0.14%     73.26% # Class of executed instruction
system.cpu0.op_class::FloatCmp                      0      0.00%     73.26% # Class of executed instruction
system.cpu0.op_class::FloatCvt                      0      0.00%     73.26% # Class of executed instruction
system.cpu0.op_class::FloatMult                     0      0.00%     73.26% # Class of executed instruction
system.cpu0.op_class::FloatMultAcc                  0      0.00%     73.26% # Class of executed instruction
system.cpu0.op_class::FloatDiv                   2102      0.00%     73.26% # Class of executed instruction
system.cpu0.op_class::FloatMisc                     0      0.00%     73.26% # Class of executed instruction
system.cpu0.op_class::FloatSqrt                     0      0.00%     73.26% # Class of executed instruction
system.cpu0.op_class::SimdAdd                       0      0.00%     73.26% # Class of executed instruction
system.cpu0.op_class::SimdAddAcc                    0      0.00%     73.26% # Class of executed instruction
system.cpu0.op_class::SimdAlu                       0      0.00%     73.26% # Class of executed instruction
system.cpu0.op_class::SimdCmp                       0      0.00%     73.26% # Class of executed instruction
system.cpu0.op_class::SimdCvt                       0      0.00%     73.26% # Class of executed instruction
system.cpu0.op_class::SimdMisc                      0      0.00%     73.26% # Class of executed instruction
system.cpu0.op_class::SimdMult                      0      0.00%     73.26% # Class of executed instruction
system.cpu0.op_class::SimdMultAcc                   0      0.00%     73.26% # Class of executed instruction
system.cpu0.op_class::SimdShift                     0      0.00%     73.26% # Class of executed instruction
system.cpu0.op_class::SimdShiftAcc                  0      0.00%     73.26% # Class of executed instruction
system.cpu0.op_class::SimdSqrt                      0      0.00%     73.26% # Class of executed instruction
system.cpu0.op_class::SimdFloatAdd                  0      0.00%     73.26% # Class of executed instruction
system.cpu0.op_class::SimdFloatAlu                  0      0.00%     73.26% # Class of executed instruction
system.cpu0.op_class::SimdFloatCmp                  0      0.00%     73.26% # Class of executed instruction
system.cpu0.op_class::SimdFloatCvt                  0      0.00%     73.26% # Class of executed instruction
system.cpu0.op_class::SimdFloatDiv                  0      0.00%     73.26% # Class of executed instruction
system.cpu0.op_class::SimdFloatMisc                 0      0.00%     73.26% # Class of executed instruction
system.cpu0.op_class::SimdFloatMult                 0      0.00%     73.26% # Class of executed instruction
system.cpu0.op_class::SimdFloatMultAcc              0      0.00%     73.26% # Class of executed instruction
system.cpu0.op_class::SimdFloatSqrt                 0      0.00%     73.26% # Class of executed instruction
system.cpu0.op_class::MemRead                11926074     17.43%     90.70% # Class of executed instruction
system.cpu0.op_class::MemWrite                5633468      8.23%     98.93% # Class of executed instruction
system.cpu0.op_class::FloatMemRead              70465      0.10%     99.04% # Class of executed instruction
system.cpu0.op_class::FloatMemWrite             66943      0.10%     99.13% # Class of executed instruction
system.cpu0.op_class::IprAccess                593184      0.87%    100.00% # Class of executed instruction
system.cpu0.op_class::InstPrefetch                  0      0.00%    100.00% # Class of executed instruction
system.cpu0.op_class::total                  68412376                       # Class of executed instruction
system.cpu0.dcache.tags.pwrStateResidencyTicks::UNDEFINED 2537695529500                       # Cumulative time (in ticks) in various power states
system.cpu0.dcache.tags.replacements          3080902                       # number of replacements
system.cpu0.dcache.tags.tagsinuse         2017.896352                       # Cycle average of tags in use
system.cpu0.dcache.tags.total_refs           14201487                       # Total number of references to valid blocks.
system.cpu0.dcache.tags.sampled_refs          3080902                       # Sample count of references to valid blocks.
system.cpu0.dcache.tags.avg_refs             4.609522                       # Average number of references to valid blocks.
system.cpu0.dcache.tags.warmup_cycle        265721500                       # Cycle when the warmup percentage was hit.
system.cpu0.dcache.tags.occ_blocks::cpu0.data  2017.896352                       # Average occupied blocks per requestor
system.cpu0.dcache.tags.occ_percent::cpu0.data     0.985301                       # Average percentage of cache occupancy
system.cpu0.dcache.tags.occ_percent::total     0.985301                       # Average percentage of cache occupancy
system.cpu0.dcache.tags.occ_task_id_blocks::1024         2048                       # Occupied blocks per task id
system.cpu0.dcache.tags.age_task_id_blocks_1024::0          112                       # Occupied blocks per task id
system.cpu0.dcache.tags.age_task_id_blocks_1024::1          878                       # Occupied blocks per task id
system.cpu0.dcache.tags.age_task_id_blocks_1024::2         1058                       # Occupied blocks per task id
system.cpu0.dcache.tags.occ_task_id_percent::1024            1                       # Percentage of cache occupancy per task id
system.cpu0.dcache.tags.tag_accesses         20462746                       # Number of tag accesses
system.cpu0.dcache.tags.data_accesses        20462746                       # Number of data accesses
system.cpu0.dcache.pwrStateResidencyTicks::UNDEFINED 2537695529500                       # Cumulative time (in ticks) in various power states
system.cpu0.dcache.ReadReq_hits::cpu0.data      9341542                       # number of ReadReq hits
system.cpu0.dcache.ReadReq_hits::total        9341542                       # number of ReadReq hits
system.cpu0.dcache.WriteReq_hits::cpu0.data      4395511                       # number of WriteReq hits
system.cpu0.dcache.WriteReq_hits::total       4395511                       # number of WriteReq hits
system.cpu0.dcache.LoadLockedReq_hits::cpu0.data       210881                       # number of LoadLockedReq hits
system.cpu0.dcache.LoadLockedReq_hits::total       210881                       # number of LoadLockedReq hits
system.cpu0.dcache.StoreCondReq_hits::cpu0.data       215540                       # number of StoreCondReq hits
system.cpu0.dcache.StoreCondReq_hits::total       215540                       # number of StoreCondReq hits
system.cpu0.dcache.demand_hits::cpu0.data     13737053                       # number of demand (read+write) hits
system.cpu0.dcache.demand_hits::total        13737053                       # number of demand (read+write) hits
system.cpu0.dcache.overall_hits::cpu0.data     13737053                       # number of overall hits
system.cpu0.dcache.overall_hits::total       13737053                       # number of overall hits
system.cpu0.dcache.ReadReq_misses::cpu0.data      2092407                       # number of ReadReq misses
system.cpu0.dcache.ReadReq_misses::total      2092407                       # number of ReadReq misses
system.cpu0.dcache.WriteReq_misses::cpu0.data      1048232                       # number of WriteReq misses
system.cpu0.dcache.WriteReq_misses::total      1048232                       # number of WriteReq misses
system.cpu0.dcache.LoadLockedReq_misses::cpu0.data        19418                       # number of LoadLockedReq misses
system.cpu0.dcache.LoadLockedReq_misses::total        19418                       # number of LoadLockedReq misses
system.cpu0.dcache.StoreCondReq_misses::cpu0.data         9873                       # number of StoreCondReq misses
system.cpu0.dcache.StoreCondReq_misses::total         9873                       # number of StoreCondReq misses
system.cpu0.dcache.demand_misses::cpu0.data      3140639                       # number of demand (read+write) misses
system.cpu0.dcache.demand_misses::total       3140639                       # number of demand (read+write) misses
system.cpu0.dcache.overall_misses::cpu0.data      3140639                       # number of overall misses
system.cpu0.dcache.overall_misses::total      3140639                       # number of overall misses
system.cpu0.dcache.ReadReq_miss_latency::cpu0.data  50683788500                       # number of ReadReq miss cycles
system.cpu0.dcache.ReadReq_miss_latency::total  50683788500                       # number of ReadReq miss cycles
system.cpu0.dcache.WriteReq_miss_latency::cpu0.data  66117136500                       # number of WriteReq miss cycles
system.cpu0.dcache.WriteReq_miss_latency::total  66117136500                       # number of WriteReq miss cycles
system.cpu0.dcache.LoadLockedReq_miss_latency::cpu0.data    225499000                       # number of LoadLockedReq miss cycles
system.cpu0.dcache.LoadLockedReq_miss_latency::total    225499000                       # number of LoadLockedReq miss cycles
system.cpu0.dcache.StoreCondReq_miss_latency::cpu0.data     52735500                       # number of StoreCondReq miss cycles
system.cpu0.dcache.StoreCondReq_miss_latency::total     52735500                       # number of StoreCondReq miss cycles
system.cpu0.dcache.demand_miss_latency::cpu0.data 116800925000                       # number of demand (read+write) miss cycles
system.cpu0.dcache.demand_miss_latency::total 116800925000                       # number of demand (read+write) miss cycles
system.cpu0.dcache.overall_miss_latency::cpu0.data 116800925000                       # number of overall miss cycles
system.cpu0.dcache.overall_miss_latency::total 116800925000                       # number of overall miss cycles
system.cpu0.dcache.ReadReq_accesses::cpu0.data     11433949                       # number of ReadReq accesses(hits+misses)
system.cpu0.dcache.ReadReq_accesses::total     11433949                       # number of ReadReq accesses(hits+misses)
system.cpu0.dcache.WriteReq_accesses::cpu0.data      5443743                       # number of WriteReq accesses(hits+misses)
system.cpu0.dcache.WriteReq_accesses::total      5443743                       # number of WriteReq accesses(hits+misses)
system.cpu0.dcache.LoadLockedReq_accesses::cpu0.data       230299                       # number of LoadLockedReq accesses(hits+misses)
system.cpu0.dcache.LoadLockedReq_accesses::total       230299                       # number of LoadLockedReq accesses(hits+misses)
system.cpu0.dcache.StoreCondReq_accesses::cpu0.data       225413                       # number of StoreCondReq accesses(hits+misses)
system.cpu0.dcache.StoreCondReq_accesses::total       225413                       # number of StoreCondReq accesses(hits+misses)
system.cpu0.dcache.demand_accesses::cpu0.data     16877692                       # number of demand (read+write) accesses
system.cpu0.dcache.demand_accesses::total     16877692                       # number of demand (read+write) accesses
system.cpu0.dcache.overall_accesses::cpu0.data     16877692                       # number of overall (read+write) accesses
system.cpu0.dcache.overall_accesses::total     16877692                       # number of overall (read+write) accesses
system.cpu0.dcache.ReadReq_miss_rate::cpu0.data     0.183000                       # miss rate for ReadReq accesses
system.cpu0.dcache.ReadReq_miss_rate::total     0.183000                       # miss rate for ReadReq accesses
system.cpu0.dcache.WriteReq_miss_rate::cpu0.data     0.192557                       # miss rate for WriteReq accesses
system.cpu0.dcache.WriteReq_miss_rate::total     0.192557                       # miss rate for WriteReq accesses
system.cpu0.dcache.LoadLockedReq_miss_rate::cpu0.data     0.084316                       # miss rate for LoadLockedReq accesses
system.cpu0.dcache.LoadLockedReq_miss_rate::total     0.084316                       # miss rate for LoadLockedReq accesses
system.cpu0.dcache.StoreCondReq_miss_rate::cpu0.data     0.043800                       # miss rate for StoreCondReq accesses
system.cpu0.dcache.StoreCondReq_miss_rate::total     0.043800                       # miss rate for StoreCondReq accesses
system.cpu0.dcache.demand_miss_rate::cpu0.data     0.186082                       # miss rate for demand accesses
system.cpu0.dcache.demand_miss_rate::total     0.186082                       # miss rate for demand accesses
system.cpu0.dcache.overall_miss_rate::cpu0.data     0.186082                       # miss rate for overall accesses
system.cpu0.dcache.overall_miss_rate::total     0.186082                       # miss rate for overall accesses
system.cpu0.dcache.ReadReq_avg_miss_latency::cpu0.data 24222.719815                       # average ReadReq miss latency
system.cpu0.dcache.ReadReq_avg_miss_latency::total 24222.719815                       # average ReadReq miss latency
system.cpu0.dcache.WriteReq_avg_miss_latency::cpu0.data 63074.907559                       # average WriteReq miss latency
system.cpu0.dcache.WriteReq_avg_miss_latency::total 63074.907559                       # average WriteReq miss latency
system.cpu0.dcache.LoadLockedReq_avg_miss_latency::cpu0.data 11612.884952                       # average LoadLockedReq miss latency
system.cpu0.dcache.LoadLockedReq_avg_miss_latency::total 11612.884952                       # average LoadLockedReq miss latency
system.cpu0.dcache.StoreCondReq_avg_miss_latency::cpu0.data  5341.385597                       # average StoreCondReq miss latency
system.cpu0.dcache.StoreCondReq_avg_miss_latency::total  5341.385597                       # average StoreCondReq miss latency
system.cpu0.dcache.demand_avg_miss_latency::cpu0.data 37190.178496                       # average overall miss latency
system.cpu0.dcache.demand_avg_miss_latency::total 37190.178496                       # average overall miss latency
system.cpu0.dcache.overall_avg_miss_latency::cpu0.data 37190.178496                       # average overall miss latency
system.cpu0.dcache.overall_avg_miss_latency::total 37190.178496                       # average overall miss latency
system.cpu0.dcache.blocked_cycles::no_mshrs            0                       # number of cycles access was blocked
system.cpu0.dcache.blocked_cycles::no_targets            0                       # number of cycles access was blocked
system.cpu0.dcache.blocked::no_mshrs                0                       # number of cycles access was blocked
system.cpu0.dcache.blocked::no_targets              0                       # number of cycles access was blocked
system.cpu0.dcache.avg_blocked_cycles::no_mshrs          nan                       # average number of cycles each access was blocked
system.cpu0.dcache.avg_blocked_cycles::no_targets          nan                       # average number of cycles each access was blocked
system.cpu0.dcache.writebacks::writebacks      2620742                       # number of writebacks
system.cpu0.dcache.writebacks::total          2620742                       # number of writebacks
system.cpu0.dcache.ReadReq_mshr_misses::cpu0.data      2092407                       # number of ReadReq MSHR misses
system.cpu0.dcache.ReadReq_mshr_misses::total      2092407                       # number of ReadReq MSHR misses
system.cpu0.dcache.WriteReq_mshr_misses::cpu0.data      1048232                       # number of WriteReq MSHR misses
system.cpu0.dcache.WriteReq_mshr_misses::total      1048232                       # number of WriteReq MSHR misses
system.cpu0.dcache.LoadLockedReq_mshr_misses::cpu0.data        19418                       # number of LoadLockedReq MSHR misses
system.cpu0.dcache.LoadLockedReq_mshr_misses::total        19418                       # number of LoadLockedReq MSHR misses
system.cpu0.dcache.StoreCondReq_mshr_misses::cpu0.data         9873                       # number of StoreCondReq MSHR misses
system.cpu0.dcache.StoreCondReq_mshr_misses::total         9873                       # number of StoreCondReq MSHR misses
system.cpu0.dcache.demand_mshr_misses::cpu0.data      3140639                       # number of demand (read+write) MSHR misses
system.cpu0.dcache.demand_mshr_misses::total      3140639                       # number of demand (read+write) MSHR misses
system.cpu0.dcache.overall_mshr_misses::cpu0.data      3140639                       # number of overall MSHR misses
system.cpu0.dcache.overall_mshr_misses::total      3140639                       # number of overall MSHR misses
system.cpu0.dcache.ReadReq_mshr_uncacheable::cpu0.data         5222                       # number of ReadReq MSHR uncacheable
system.cpu0.dcache.ReadReq_mshr_uncacheable::total         5222                       # number of ReadReq MSHR uncacheable
system.cpu0.dcache.WriteReq_mshr_uncacheable::cpu0.data         9926                       # number of WriteReq MSHR uncacheable
system.cpu0.dcache.WriteReq_mshr_uncacheable::total         9926                       # number of WriteReq MSHR uncacheable
system.cpu0.dcache.overall_mshr_uncacheable_misses::cpu0.data        15148                       # number of overall MSHR uncacheable misses
system.cpu0.dcache.overall_mshr_uncacheable_misses::total        15148                       # number of overall MSHR uncacheable misses
system.cpu0.dcache.ReadReq_mshr_miss_latency::cpu0.data  48591381500                       # number of ReadReq MSHR miss cycles
system.cpu0.dcache.ReadReq_mshr_miss_latency::total  48591381500                       # number of ReadReq MSHR miss cycles
system.cpu0.dcache.WriteReq_mshr_miss_latency::cpu0.data  65068904500                       # number of WriteReq MSHR miss cycles
system.cpu0.dcache.WriteReq_mshr_miss_latency::total  65068904500                       # number of WriteReq MSHR miss cycles
system.cpu0.dcache.LoadLockedReq_mshr_miss_latency::cpu0.data    206081000                       # number of LoadLockedReq MSHR miss cycles
system.cpu0.dcache.LoadLockedReq_mshr_miss_latency::total    206081000                       # number of LoadLockedReq MSHR miss cycles
system.cpu0.dcache.StoreCondReq_mshr_miss_latency::cpu0.data     42862500                       # number of StoreCondReq MSHR miss cycles
system.cpu0.dcache.StoreCondReq_mshr_miss_latency::total     42862500                       # number of StoreCondReq MSHR miss cycles
system.cpu0.dcache.demand_mshr_miss_latency::cpu0.data 113660286000                       # number of demand (read+write) MSHR miss cycles
system.cpu0.dcache.demand_mshr_miss_latency::total 113660286000                       # number of demand (read+write) MSHR miss cycles
system.cpu0.dcache.overall_mshr_miss_latency::cpu0.data 113660286000                       # number of overall MSHR miss cycles
system.cpu0.dcache.overall_mshr_miss_latency::total 113660286000                       # number of overall MSHR miss cycles
system.cpu0.dcache.ReadReq_mshr_uncacheable_latency::cpu0.data   1189362000                       # number of ReadReq MSHR uncacheable cycles
system.cpu0.dcache.ReadReq_mshr_uncacheable_latency::total   1189362000                       # number of ReadReq MSHR uncacheable cycles
system.cpu0.dcache.overall_mshr_uncacheable_latency::cpu0.data   1189362000                       # number of overall MSHR uncacheable cycles
system.cpu0.dcache.overall_mshr_uncacheable_latency::total   1189362000                       # number of overall MSHR uncacheable cycles
system.cpu0.dcache.ReadReq_mshr_miss_rate::cpu0.data     0.183000                       # mshr miss rate for ReadReq accesses
system.cpu0.dcache.ReadReq_mshr_miss_rate::total     0.183000                       # mshr miss rate for ReadReq accesses
system.cpu0.dcache.WriteReq_mshr_miss_rate::cpu0.data     0.192557                       # mshr miss rate for WriteReq accesses
system.cpu0.dcache.WriteReq_mshr_miss_rate::total     0.192557                       # mshr miss rate for WriteReq accesses
system.cpu0.dcache.LoadLockedReq_mshr_miss_rate::cpu0.data     0.084316                       # mshr miss rate for LoadLockedReq accesses
system.cpu0.dcache.LoadLockedReq_mshr_miss_rate::total     0.084316                       # mshr miss rate for LoadLockedReq accesses
system.cpu0.dcache.StoreCondReq_mshr_miss_rate::cpu0.data     0.043800                       # mshr miss rate for StoreCondReq accesses
system.cpu0.dcache.StoreCondReq_mshr_miss_rate::total     0.043800                       # mshr miss rate for StoreCondReq accesses
system.cpu0.dcache.demand_mshr_miss_rate::cpu0.data     0.186082                       # mshr miss rate for demand accesses
system.cpu0.dcache.demand_mshr_miss_rate::total     0.186082                       # mshr miss rate for demand accesses
system.cpu0.dcache.overall_mshr_miss_rate::cpu0.data     0.186082                       # mshr miss rate for overall accesses
system.cpu0.dcache.overall_mshr_miss_rate::total     0.186082                       # mshr miss rate for overall accesses
system.cpu0.dcache.ReadReq_avg_mshr_miss_latency::cpu0.data 23222.719815                       # average ReadReq mshr miss latency
system.cpu0.dcache.ReadReq_avg_mshr_miss_latency::total 23222.719815                       # average ReadReq mshr miss latency
system.cpu0.dcache.WriteReq_avg_mshr_miss_latency::cpu0.data 62074.907559                       # average WriteReq mshr miss latency
system.cpu0.dcache.WriteReq_avg_mshr_miss_latency::total 62074.907559                       # average WriteReq mshr miss latency
system.cpu0.dcache.LoadLockedReq_avg_mshr_miss_latency::cpu0.data 10612.884952                       # average LoadLockedReq mshr miss latency
system.cpu0.dcache.LoadLockedReq_avg_mshr_miss_latency::total 10612.884952                       # average LoadLockedReq mshr miss latency
system.cpu0.dcache.StoreCondReq_avg_mshr_miss_latency::cpu0.data  4341.385597                       # average StoreCondReq mshr miss latency
system.cpu0.dcache.StoreCondReq_avg_mshr_miss_latency::total  4341.385597                       # average StoreCondReq mshr miss latency
system.cpu0.dcache.demand_avg_mshr_miss_latency::cpu0.data 36190.178496                       # average overall mshr miss latency
system.cpu0.dcache.demand_avg_mshr_miss_latency::total 36190.178496                       # average overall mshr miss latency
system.cpu0.dcache.overall_avg_mshr_miss_latency::cpu0.data 36190.178496                       # average overall mshr miss latency
system.cpu0.dcache.overall_avg_mshr_miss_latency::total 36190.178496                       # average overall mshr miss latency
system.cpu0.dcache.ReadReq_avg_mshr_uncacheable_latency::cpu0.data 227759.862122                       # average ReadReq mshr uncacheable latency
system.cpu0.dcache.ReadReq_avg_mshr_uncacheable_latency::total 227759.862122                       # average ReadReq mshr uncacheable latency
system.cpu0.dcache.overall_avg_mshr_uncacheable_latency::cpu0.data 78516.107737                       # average overall mshr uncacheable latency
system.cpu0.dcache.overall_avg_mshr_uncacheable_latency::total 78516.107737                       # average overall mshr uncacheable latency
system.cpu0.icache.tags.pwrStateResidencyTicks::UNDEFINED 2537695529500                       # Cumulative time (in ticks) in various power states
[...]
system.membus.pkt_size::total                 2048117                       # Cumulative packet size per connected master and slave (bytes)
system.membus.snoops                             6449                       # Total snoops (count)
system.membus.snoopTraffic                        496                       # Total snoop traffic (bytes)
system.membus.snoop_fanout::samples             99984                       # Request fanout histogram
system.membus.snoop_fanout::mean             0.049378                       # Request fanout histogram
system.membus.snoop_fanout::stdev            0.216657                       # Request fanout histogram
system.membus.snoop_fanout::underflows              0      0.00%      0.00% # Request fanout histogram
system.membus.snoop_fanout::0                   95047     95.06%     95.06% # Request fanout histogram
system.membus.snoop_fanout::1                    4937      4.94%    100.00% # Request fanout histogram
system.membus.snoop_fanout::2                       0      0.00%    100.00% # Request fanout histogram
system.membus.snoop_fanout::overflows               0      0.00%    100.00% # Request fanout histogram
system.membus.snoop_fanout::min_value               0                       # Request fanout histogram
system.membus.snoop_fanout::max_value               1                       # Request fanout histogram
system.membus.snoop_fanout::total               99984                       # Request fanout histogram
system.membus.reqLayer0.occupancy             1849000                       # Layer occupancy (ticks)
system.membus.reqLayer0.utilization               0.0                       # Layer utilization (%)
system.membus.reqLayer1.occupancy           265756312                       # Layer occupancy (ticks)
system.membus.reqLayer1.utilization               3.0                       # Layer utilization (%)
system.membus.respLayer1.occupancy            5314103                       # Layer occupancy (ticks)
system.membus.respLayer1.utilization              0.1                       # Layer utilization (%)
system.membus.respLayer2.occupancy          120390500                       # Layer occupancy (ticks)
system.membus.respLayer2.utilization              1.4                       # Layer utilization (%)
system.membus.badaddr_responder.pwrStateResidencyTicks::UNDEFINED   8749192000                       # Cumulative time (in ticks) in various power states
system.tol2bus.snoop_filter.tot_requests       492196                       # Total number of requests made to the snoop filter.
system.tol2bus.snoop_filter.hit_single_requests       228822                       # Number of requests hitting in the snoop filter with a single holder of the requested data.
system.tol2bus.snoop_filter.hit_multi_requests        55069                       # Number of requests hitting in the snoop filter with multiple (>1) holders of the requested data.
system.tol2bus.snoop_filter.tot_snoops           3676                       # Total number of snoops made to the snoop filter.
system.tol2bus.snoop_filter.hit_single_snoops         3154                       # Number of snoops hitting in the snoop filter with a single holder of the requested data.
system.tol2bus.snoop_filter.hit_multi_snoops          522                       # Number of snoops hitting in the snoop filter with multiple (>1) holders of the requested data.
system.tol2bus.pwrStateResidencyTicks::UNDEFINED   8749192000                       # Cumulative time (in ticks) in various power states
system.tol2bus.trans_dist::ReadReq                590                       # Transaction distribution
system.tol2bus.trans_dist::ReadResp            186728                       # Transaction distribution
system.tol2bus.trans_dist::WriteReq               485                       # Transaction distribution
system.tol2bus.trans_dist::WriteResp              485                       # Transaction distribution
system.tol2bus.trans_dist::WritebackDirty       113891                       # Transaction distribution
system.tol2bus.trans_dist::WritebackClean       134937                       # Transaction distribution
system.tol2bus.trans_dist::CleanEvict           43624                       # Transaction distribution
system.tol2bus.trans_dist::UpgradeReq            1169                       # Transaction distribution
system.tol2bus.trans_dist::SCUpgradeReq           354                       # Transaction distribution
system.tol2bus.trans_dist::UpgradeResp           1523                       # Transaction distribution
system.tol2bus.trans_dist::ReadExReq            61258                       # Transaction distribution
system.tol2bus.trans_dist::ReadExResp           61258                       # Transaction distribution
system.tol2bus.trans_dist::ReadCleanReq        134942                       # Transaction distribution
system.tol2bus.trans_dist::ReadSharedReq        51223                       # Transaction distribution
system.tol2bus.trans_dist::InvalidateReq         4906                       # Transaction distribution
system.tol2bus.trans_dist::InvalidateResp          635                       # Transaction distribution
system.tol2bus.pkt_count_system.cpu0.icache.mem_side::system.l2.cpu_side       114466                       # Packet count per connected master and slave (bytes)
system.tol2bus.pkt_count_system.cpu0.dcache.mem_side::system.l2.cpu_side       170451                       # Packet count per connected master and slave (bytes)
system.tol2bus.pkt_count_system.cpu1.icache.mem_side::system.l2.cpu_side        26700                       # Packet count per connected master and slave (bytes)
system.tol2bus.pkt_count_system.cpu1.dcache.mem_side::system.l2.cpu_side        23122                       # Packet count per connected master and slave (bytes)
system.tol2bus.pkt_count_system.cpu2.icache.mem_side::system.l2.cpu_side       174875                       # Packet count per connected master and slave (bytes)
system.tol2bus.pkt_count_system.cpu2.dcache.mem_side::system.l2.cpu_side        87383                       # Packet count per connected master and slave (bytes)
system.tol2bus.pkt_count_system.cpu3.icache.mem_side::system.l2.cpu_side        88772                       # Packet count per connected master and slave (bytes)
system.tol2bus.pkt_count_system.cpu3.dcache.mem_side::system.l2.cpu_side        48555                       # Packet count per connected master and slave (bytes)
system.tol2bus.pkt_count::total                734324                       # Packet count per connected master and slave (bytes)
system.tol2bus.pkt_size_system.cpu0.icache.mem_side::system.l2.cpu_side      1220944                       # Cumulative packet size per connected master and slave (bytes)
system.tol2bus.pkt_size_system.cpu0.dcache.mem_side::system.l2.cpu_side      1575820                       # Cumulative packet size per connected master and slave (bytes)
system.tol2bus.pkt_size_system.cpu1.icache.mem_side::system.l2.cpu_side       284800                       # Cumulative packet size per connected master and slave (bytes)
system.tol2bus.pkt_size_system.cpu1.dcache.mem_side::system.l2.cpu_side       204884                       # Cumulative packet size per connected master and slave (bytes)
system.tol2bus.pkt_size_system.cpu2.icache.mem_side::system.l2.cpu_side      1865296                       # Cumulative packet size per connected master and slave (bytes)
system.tol2bus.pkt_size_system.cpu2.dcache.mem_side::system.l2.cpu_side       794797                       # Cumulative packet size per connected master and slave (bytes)
system.tol2bus.pkt_size_system.cpu3.icache.mem_side::system.l2.cpu_side       946896                       # Cumulative packet size per connected master and slave (bytes)
system.tol2bus.pkt_size_system.cpu3.dcache.mem_side::system.l2.cpu_side       426984                       # Cumulative packet size per connected master and slave (bytes)
system.tol2bus.pkt_size::total                7320421                       # Cumulative packet size per connected master and slave (bytes)
system.tol2bus.snoops                           64323                       # Total snoops (count)
system.tol2bus.snoopTraffic                    621264                       # Total snoop traffic (bytes)
system.tol2bus.snoop_fanout::samples           304098                       # Request fanout histogram
system.tol2bus.snoop_fanout::mean            0.231767                       # Request fanout histogram
system.tol2bus.snoop_fanout::stdev           0.639236                       # Request fanout histogram
system.tol2bus.snoop_fanout::underflows             0      0.00%      0.00% # Request fanout histogram
system.tol2bus.snoop_fanout::0                 259943     85.48%     85.48% # Request fanout histogram
system.tol2bus.snoop_fanout::1                  26560      8.73%     94.21% # Request fanout histogram
system.tol2bus.snoop_fanout::2                   8868      2.92%     97.13% # Request fanout histogram
system.tol2bus.snoop_fanout::3                   8724      2.87%    100.00% # Request fanout histogram
system.tol2bus.snoop_fanout::4                      3      0.00%    100.00% # Request fanout histogram
system.tol2bus.snoop_fanout::5                      0      0.00%    100.00% # Request fanout histogram
system.tol2bus.snoop_fanout::6                      0      0.00%    100.00% # Request fanout histogram
system.tol2bus.snoop_fanout::7                      0      0.00%    100.00% # Request fanout histogram
system.tol2bus.snoop_fanout::8                      0      0.00%    100.00% # Request fanout histogram
system.tol2bus.snoop_fanout::overflows              0      0.00%    100.00% # Request fanout histogram
system.tol2bus.snoop_fanout::min_value              0                       # Request fanout histogram
system.tol2bus.snoop_fanout::max_value              4                       # Request fanout histogram
system.tol2bus.snoop_fanout::total             304098                       # Request fanout histogram
system.tol2bus.reqLayer0.occupancy          356007000                       # Layer occupancy (ticks)
system.tol2bus.reqLayer0.utilization              4.1                       # Layer utilization (%)
system.tol2bus.snoopLayer0.occupancy           338965                       # Layer occupancy (ticks)
system.tol2bus.snoopLayer0.utilization            0.0                       # Layer utilization (%)
system.tol2bus.respLayer0.occupancy          38184944                       # Layer occupancy (ticks)
system.tol2bus.respLayer0.utilization             0.4                       # Layer utilization (%)
system.tol2bus.respLayer1.occupancy          58084419                       # Layer occupancy (ticks)
system.tol2bus.respLayer1.utilization             0.7                       # Layer utilization (%)
system.tol2bus.respLayer2.occupancy           8923952                       # Layer occupancy (ticks)
system.tol2bus.respLayer2.utilization             0.1                       # Layer utilization (%)
system.tol2bus.respLayer3.occupancy           8262906                       # Layer occupancy (ticks)
system.tol2bus.respLayer3.utilization             0.1                       # Layer utilization (%)
system.tol2bus.respLayer4.occupancy          58334419                       # Layer occupancy (ticks)
system.tol2bus.respLayer4.utilization             0.7                       # Layer utilization (%)
system.tol2bus.respLayer5.occupancy          30610936                       # Layer occupancy (ticks)
system.tol2bus.respLayer5.utilization             0.3                       # Layer utilization (%)
system.tol2bus.respLayer6.occupancy          29642397                       # Layer occupancy (ticks)
system.tol2bus.respLayer6.utilization             0.3                       # Layer utilization (%)
system.tol2bus.respLayer7.occupancy          17256896                       # Layer occupancy (ticks)
system.tol2bus.respLayer7.utilization             0.2                       # Layer utilization (%)
system.tsunami.backdoor.pwrStateResidencyTicks::UNDEFINED   8749192000                       # Cumulative time (in ticks) in various power states
system.tsunami.cchip.pwrStateResidencyTicks::UNDEFINED   8749192000                       # Cumulative time (in ticks) in various power states
system.tsunami.pchip.pwrStateResidencyTicks::UNDEFINED   8749192000                       # Cumulative time (in ticks) in various power states
system.tsunami.ethernet.pwrStateResidencyTicks::UNDEFINED   8749192000                       # Cumulative time (in ticks) in various power states
system.tsunami.ethernet.descDMAReads                0                       # Number of descriptors the device read w/ DMA
system.tsunami.ethernet.descDMAWrites               0                       # Number of descriptors the device wrote w/ DMA
system.tsunami.ethernet.descDmaReadBytes            0                       # number of descriptor bytes read w/ DMA
system.tsunami.ethernet.descDmaWriteBytes            0                       # number of descriptor bytes write w/ DMA
system.tsunami.ethernet.postedSwi                   0                       # number of software interrupts posted to CPU
system.tsunami.ethernet.coalescedSwi              nan                       # average number of Swi's coalesced into each post
system.tsunami.ethernet.totalSwi                    0                       # total number of Swi written to ISR
system.tsunami.ethernet.postedRxIdle                0                       # number of rxIdle interrupts posted to CPU
system.tsunami.ethernet.coalescedRxIdle           nan                       # average number of RxIdle's coalesced into each post
system.tsunami.ethernet.totalRxIdle                 0                       # total number of RxIdle written to ISR
system.tsunami.ethernet.postedRxOk                  0                       # number of RxOk interrupts posted to CPU
system.tsunami.ethernet.coalescedRxOk             nan                       # average number of RxOk's coalesced into each post
system.tsunami.ethernet.totalRxOk                   0                       # total number of RxOk written to ISR
system.tsunami.ethernet.postedRxDesc                0                       # number of RxDesc interrupts posted to CPU
system.tsunami.ethernet.coalescedRxDesc           nan                       # average number of RxDesc's coalesced into each post
system.tsunami.ethernet.totalRxDesc                 0                       # total number of RxDesc written to ISR
system.tsunami.ethernet.postedTxOk                  0                       # number of TxOk interrupts posted to CPU
system.tsunami.ethernet.coalescedTxOk             nan                       # average number of TxOk's coalesced into each post
system.tsunami.ethernet.totalTxOk                   0                       # total number of TxOk written to ISR
system.tsunami.ethernet.postedTxIdle                0                       # number of TxIdle interrupts posted to CPU
system.tsunami.ethernet.coalescedTxIdle           nan                       # average number of TxIdle's coalesced into each post
system.tsunami.ethernet.totalTxIdle                 0                       # total number of TxIdle written to ISR
system.tsunami.ethernet.postedTxDesc                0                       # number of TxDesc interrupts posted to CPU
system.tsunami.ethernet.coalescedTxDesc           nan                       # average number of TxDesc's coalesced into each post
system.tsunami.ethernet.totalTxDesc                 0                       # total number of TxDesc written to ISR
system.tsunami.ethernet.postedRxOrn                 0                       # number of RxOrn posted to CPU
system.tsunami.ethernet.coalescedRxOrn            nan                       # average number of RxOrn's coalesced into each post
system.tsunami.ethernet.totalRxOrn                  0                       # total number of RxOrn written to ISR
system.tsunami.ethernet.coalescedTotal            nan                       # average number of interrupts coalesced into each post
system.tsunami.ethernet.postedInterrupts            0                       # number of posts to CPU
system.tsunami.ethernet.droppedPackets              0                       # number of packets dropped
system.tsunami.fake_OROM.pwrStateResidencyTicks::UNDEFINED   8749192000                       # Cumulative time (in ticks) in various power states
system.tsunami.fake_ata0.pwrStateResidencyTicks::UNDEFINED   8749192000                       # Cumulative time (in ticks) in various power states
system.tsunami.fake_ata1.pwrStateResidencyTicks::UNDEFINED   8749192000                       # Cumulative time (in ticks) in various power states
system.tsunami.fake_pnp_addr.pwrStateResidencyTicks::UNDEFINED   8749192000                       # Cumulative time (in ticks) in various power states
system.tsunami.fake_pnp_read0.pwrStateResidencyTicks::UNDEFINED   8749192000                       # Cumulative time (in ticks) in various power states
system.tsunami.fake_pnp_read1.pwrStateResidencyTicks::UNDEFINED   8749192000                       # Cumulative time (in ticks) in various power states
system.tsunami.fake_pnp_read2.pwrStateResidencyTicks::UNDEFINED   8749192000                       # Cumulative time (in ticks) in various power states
system.tsunami.fake_pnp_read3.pwrStateResidencyTicks::UNDEFINED   8749192000                       # Cumulative time (in ticks) in various power states
system.tsunami.fake_pnp_read4.pwrStateResidencyTicks::UNDEFINED   8749192000                       # Cumulative time (in ticks) in various power states
system.tsunami.fake_pnp_read5.pwrStateResidencyTicks::UNDEFINED   8749192000                       # Cumulative time (in ticks) in various power states
system.tsunami.fake_pnp_read6.pwrStateResidencyTicks::UNDEFINED   8749192000                       # Cumulative time (in ticks) in various power states
system.tsunami.fake_pnp_read7.pwrStateResidencyTicks::UNDEFINED   8749192000                       # Cumulative time (in ticks) in various power states
system.tsunami.fake_pnp_write.pwrStateResidencyTicks::UNDEFINED   8749192000                       # Cumulative time (in ticks) in various power states
system.tsunami.fake_ppc.pwrStateResidencyTicks::UNDEFINED   8749192000                       # Cumulative time (in ticks) in various power states
system.tsunami.fake_sm_chip.pwrStateResidencyTicks::UNDEFINED   8749192000                       # Cumulative time (in ticks) in various power states
system.tsunami.fake_uart1.pwrStateResidencyTicks::UNDEFINED   8749192000                       # Cumulative time (in ticks) in various power states
system.tsunami.fake_uart2.pwrStateResidencyTicks::UNDEFINED   8749192000                       # Cumulative time (in ticks) in various power states
system.tsunami.fake_uart3.pwrStateResidencyTicks::UNDEFINED   8749192000                       # Cumulative time (in ticks) in various power states
system.tsunami.fake_uart4.pwrStateResidencyTicks::UNDEFINED   8749192000                       # Cumulative time (in ticks) in various power states
system.tsunami.fb.pwrStateResidencyTicks::UNDEFINED   8749192000                       # Cumulative time (in ticks) in various power states
system.tsunami.ide.pwrStateResidencyTicks::UNDEFINED   8749192000                       # Cumulative time (in ticks) in various power states
system.tsunami.io.pwrStateResidencyTicks::UNDEFINED   8749192000                       # Cumulative time (in ticks) in various power states
system.tsunami.uart.pwrStateResidencyTicks::UNDEFINED   8749192000                       # Cumulative time (in ticks) in various power states

---------- End Simulation Statistics   ----------
