
---------- Begin Simulation Statistics ----------
sim_seconds                                  2.539390                       # Number of seconds simulated
sim_ticks                                2539389790500                       # Number of ticks simulated
final_tick                               2539389790500                       # Number of ticks from beginning of simulation (restored from checkpoints and never reset)
sim_freq                                 1000000000000                       # Frequency of simulated ticks
host_inst_rate                                 227266                       # Simulator instruction rate (inst/s)
host_op_rate                                   227266                       # Simulator op (including micro ops) rate (op/s)
host_tick_rate                             5124352700                       # Simulator tick rate (ticks/s)
host_mem_usage                                 756840                       # Number of bytes of host memory used
host_seconds                                   495.55                       # Real time elapsed on the host
sim_insts                                   112622241                       # Number of instructions simulated
sim_ops                                     112622241                       # Number of ops (including micro ops) simulated
system.voltage_domain.voltage                       1                       # Voltage in Volts
system.clk_domain.clock                          1000                       # Clock period in ticks
system.mem_ctrls.pwrStateResidencyTicks::UNDEFINED 2539389790500                       # Cumulative time (in ticks) in various power states
system.mem_ctrls.bytes_read::cpu0.inst         700736                       # Number of bytes read from this memory
system.mem_ctrls.bytes_read::cpu0.data       16747184                       # Number of bytes read from this memory
system.mem_ctrls.bytes_read::cpu1.inst         135504                       # Number of bytes read from this memory
system.mem_ctrls.bytes_read::cpu1.data         614624                       # Number of bytes read from this memory
system.mem_ctrls.bytes_read::cpu2.inst         622592                       # Number of bytes read from this memory
system.mem_ctrls.bytes_read::cpu2.data        3586608                       # Number of bytes read from this memory
system.mem_ctrls.bytes_read::cpu3.inst         151472                       # Number of bytes read from this memory
system.mem_ctrls.bytes_read::cpu3.data         696224                       # Number of bytes read from this memory
system.mem_ctrls.bytes_read::tsunami.ide         4048                       # Number of bytes read from this memory
system.mem_ctrls.bytes_read::total           23258992                       # Number of bytes read from this memory
system.mem_ctrls.bytes_inst_read::cpu0.inst       700736                       # Number of instructions bytes read from this memory
system.mem_ctrls.bytes_inst_read::cpu1.inst       135504                       # Number of instructions bytes read from this memory
system.mem_ctrls.bytes_inst_read::cpu2.inst       622592                       # Number of instructions bytes read from this memory
system.mem_ctrls.bytes_inst_read::cpu3.inst       151472                       # Number of instructions bytes read from this memory
system.mem_ctrls.bytes_inst_read::total       1610304                       # Number of instructions bytes read from this memory
system.mem_ctrls.bytes_written::writebacks     19227040                       # Number of bytes written to this memory
system.mem_ctrls.bytes_written::total        19227040                       # Number of bytes written to this memory
system.mem_ctrls.num_reads::cpu0.inst           43796                       # Number of read requests responded to by this memory
system.mem_ctrls.num_reads::cpu0.data         1046699                       # Number of read requests responded to by this memory
system.mem_ctrls.num_reads::cpu1.inst            8469                       # Number of read requests responded to by this memory
system.mem_ctrls.num_reads::cpu1.data           38414                       # Number of read requests responded to by this memory
system.mem_ctrls.num_reads::cpu2.inst           38912                       # Number of read requests responded to by this memory
system.mem_ctrls.num_reads::cpu2.data          224163                       # Number of read requests responded to by this memory
system.mem_ctrls.num_reads::cpu3.inst            9467                       # Number of read requests responded to by this memory
system.mem_ctrls.num_reads::cpu3.data           43514                       # Number of read requests responded to by this memory
system.mem_ctrls.num_reads::tsunami.ide           253                       # Number of read requests responded to by this memory
system.mem_ctrls.num_reads::total             1453687                       # Number of read requests responded to by this memory
system.mem_ctrls.num_writes::writebacks       1201690                       # Number of write requests responded to by this memory
system.mem_ctrls.num_writes::total            1201690                       # Number of write requests responded to by this memory
system.mem_ctrls.bw_read::cpu0.inst            275947                       # Total read bandwidth from this memory (bytes/s)
system.mem_ctrls.bw_read::cpu0.data           6594964                       # Total read bandwidth from this memory (bytes/s)
system.mem_ctrls.bw_read::cpu1.inst             53361                       # Total read bandwidth from this memory (bytes/s)
system.mem_ctrls.bw_read::cpu1.data            242036                       # Total read bandwidth from this memory (bytes/s)
system.mem_ctrls.bw_read::cpu2.inst            245174                       # Total read bandwidth from this memory (bytes/s)
system.mem_ctrls.bw_read::cpu2.data           1412390                       # Total read bandwidth from this memory (bytes/s)
system.mem_ctrls.bw_read::cpu3.inst             59649                       # Total read bandwidth from this memory (bytes/s)
system.mem_ctrls.bw_read::cpu3.data            274170                       # Total read bandwidth from this memory (bytes/s)
system.mem_ctrls.bw_read::tsunami.ide            1594                       # Total read bandwidth from this memory (bytes/s)
system.mem_ctrls.bw_read::total               9159284                       # Total read bandwidth from this memory (bytes/s)
system.mem_ctrls.bw_inst_read::cpu0.inst       275947                       # Instruction read bandwidth from this memory (bytes/s)
system.mem_ctrls.bw_inst_read::cpu1.inst        53361                       # Instruction read bandwidth from this memory (bytes/s)
system.mem_ctrls.bw_inst_read::cpu2.inst       245174                       # Instruction read bandwidth from this memory (bytes/s)
system.mem_ctrls.bw_inst_read::cpu3.inst        59649                       # Instruction read bandwidth from this memory (bytes/s)
system.mem_ctrls.bw_inst_read::total           634130                       # Instruction read bandwidth from this memory (bytes/s)
system.mem_ctrls.bw_write::writebacks         7571520                       # Write bandwidth from this memory (bytes/s)
system.mem_ctrls.bw_write::total              7571520                       # Write bandwidth from this memory (bytes/s)
system.mem_ctrls.bw_total::writebacks         7571520                       # Total bandwidth to/from this memory (bytes/s)
system.mem_ctrls.bw_total::cpu0.inst           275947                       # Total bandwidth to/from this memory (bytes/s)
system.mem_ctrls.bw_total::cpu0.data          6594964                       # Total bandwidth to/from this memory (bytes/s)
system.mem_ctrls.bw_total::cpu1.inst            53361                       # Total bandwidth to/from this memory (bytes/s)
system.mem_ctrls.bw_total::cpu1.data           242036                       # Total bandwidth to/from this memory (bytes/s)
system.mem_ctrls.bw_total::cpu2.inst           245174                       # Total bandwidth to/from this memory (bytes/s)
system.mem_ctrls.bw_total::cpu2.data          1412390                       # Total bandwidth to/from this memory (bytes/s)
system.mem_ctrls.bw_total::cpu3.inst            59649                       # Total bandwidth to/from this memory (bytes/s)
system.mem_ctrls.bw_total::cpu3.data           274170                       # Total bandwidth to/from this memory (bytes/s)
system.mem_ctrls.bw_total::tsunami.ide           1594                       # Total bandwidth to/from this memory (bytes/s)
system.mem_ctrls.bw_total::total             16730804                       # Total bandwidth to/from this memory (bytes/s)
system.mem_ctrls.readReqs                     1453687                       # Number of read requests accepted
system.mem_ctrls.writeReqs                    1201690                       # Number of write requests accepted
system.mem_ctrls.readBursts                   1453687                       # Number of DRAM read bursts, including those serviced by the write queue
system.mem_ctrls.writeBursts                  1201690                       # Number of DRAM write bursts, including those merged in the write queue
system.mem_ctrls.bytesReadDRAM               93008128                       # Total number of bytes read from DRAM
system.mem_ctrls.bytesReadWrQ                   27840                       # Total number of bytes read from write queue
system.mem_ctrls.bytesWritten                40456000                       # Total number of bytes written to DRAM
system.mem_ctrls.bytesReadSys                23258992                       # Total read bytes from the system interface side
system.mem_ctrls.bytesWrittenSys             19227040                       # Total written bytes from the system interface side
system.mem_ctrls.servicedByWrQ                    435                       # Number of DRAM read bursts serviced by the write queue
system.mem_ctrls.mergedWrBursts                569536                       # Number of DRAM write bursts merged with an existing one
system.mem_ctrls.neitherReadNorWriteReqs            0                       # Number of requests that are neither read nor write
system.mem_ctrls.perBankRdBursts::0             82932                       # Per bank write bursts
system.mem_ctrls.perBankRdBursts::1             90364                       # Per bank write bursts
system.mem_ctrls.perBankRdBursts::2             87331                       # Per bank write bursts
system.mem_ctrls.perBankRdBursts::3             88090                       # Per bank write bursts
system.mem_ctrls.perBankRdBursts::4             90410                       # Per bank write bursts
system.mem_ctrls.perBankRdBursts::5             90385                       # Per bank write bursts
system.mem_ctrls.perBankRdBursts::6            103526                       # Per bank write bursts
system.mem_ctrls.perBankRdBursts::7            101877                       # Per bank write bursts
system.mem_ctrls.perBankRdBursts::8             93167                       # Per bank write bursts
system.mem_ctrls.perBankRdBursts::9             89559                       # Per bank write bursts
system.mem_ctrls.perBankRdBursts::10            84498                       # Per bank write bursts
system.mem_ctrls.perBankRdBursts::11            93477                       # Per bank write bursts
system.mem_ctrls.perBankRdBursts::12            86605                       # Per bank write bursts
system.mem_ctrls.perBankRdBursts::13            91405                       # Per bank write bursts
system.mem_ctrls.perBankRdBursts::14            84038                       # Per bank write bursts
system.mem_ctrls.perBankRdBursts::15            95588                       # Per bank write bursts
system.mem_ctrls.perBankWrBursts::0             37295                       # Per bank write bursts
system.mem_ctrls.perBankWrBursts::1             38951                       # Per bank write bursts
system.mem_ctrls.perBankWrBursts::2             38798                       # Per bank write bursts
system.mem_ctrls.perBankWrBursts::3             39398                       # Per bank write bursts
system.mem_ctrls.perBankWrBursts::4             37892                       # Per bank write bursts
system.mem_ctrls.perBankWrBursts::5             38842                       # Per bank write bursts
system.mem_ctrls.perBankWrBursts::6             43823                       # Per bank write bursts
system.mem_ctrls.perBankWrBursts::7             44131                       # Per bank write bursts
system.mem_ctrls.perBankWrBursts::8             37119                       # Per bank write bursts
system.mem_ctrls.perBankWrBursts::9             37366                       # Per bank write bursts
system.mem_ctrls.perBankWrBursts::10            37202                       # Per bank write bursts
system.mem_ctrls.perBankWrBursts::11            40732                       # Per bank write bursts
system.mem_ctrls.perBankWrBursts::12            37421                       # Per bank write bursts
system.mem_ctrls.perBankWrBursts::13            40166                       # Per bank write bursts
system.mem_ctrls.perBankWrBursts::14            39630                       # Per bank write bursts
system.mem_ctrls.perBankWrBursts::15            43359                       # Per bank write bursts
system.mem_ctrls.numRdRetry                         0                       # Number of times read queue was full causing retry
system.mem_ctrls.numWrRetry                         0                       # Number of times write queue was full causing retry
system.mem_ctrls.totGap                  2539389698500                       # Total gap between requests
system.mem_ctrls.readPktSize::0                     0                       # Read request sizes (log2)
system.mem_ctrls.readPktSize::1                     0                       # Read request sizes (log2)
system.mem_ctrls.readPktSize::2                     0                       # Read request sizes (log2)
system.mem_ctrls.readPktSize::3                     0                       # Read request sizes (log2)
system.mem_ctrls.readPktSize::4               1453687                       # Read request sizes (log2)
system.mem_ctrls.readPktSize::5                     0                       # Read request sizes (log2)
system.mem_ctrls.readPktSize::6                     0                       # Read request sizes (log2)
system.mem_ctrls.writePktSize::0                    0                       # Write request sizes (log2)
system.mem_ctrls.writePktSize::1                    0                       # Write request sizes (log2)
system.mem_ctrls.writePktSize::2                    0                       # Write request sizes (log2)
system.mem_ctrls.writePktSize::3                    0                       # Write request sizes (log2)
system.mem_ctrls.writePktSize::4              1201690                       # Write request sizes (log2)
system.mem_ctrls.writePktSize::5                    0                       # Write request sizes (log2)
system.mem_ctrls.writePktSize::6                    0                       # Write request sizes (log2)
system.mem_ctrls.rdQLenPdf::0                 1447476                       # What read queue length does an incoming req see
system.mem_ctrls.rdQLenPdf::1                    5310                       # What read queue length does an incoming req see
system.mem_ctrls.rdQLenPdf::2                     220                       # What read queue length does an incoming req see
system.mem_ctrls.rdQLenPdf::3                      12                       # What read queue length does an incoming req see
system.mem_ctrls.rdQLenPdf::4                      15                       # What read queue length does an incoming req see
system.mem_ctrls.rdQLenPdf::5                      17                       # What read queue length does an incoming req see
system.mem_ctrls.rdQLenPdf::6                      18                       # What read queue length does an incoming req see
system.mem_ctrls.rdQLenPdf::7                      16                       # What read queue length does an incoming req see
system.mem_ctrls.rdQLenPdf::8                      39                       # What read queue length does an incoming req see
system.mem_ctrls.rdQLenPdf::9                      70                       # What read queue length does an incoming req see
system.mem_ctrls.rdQLenPdf::10                     19                       # What read queue length does an incoming req see
system.mem_ctrls.rdQLenPdf::11                     13                       # What read queue length does an incoming req see
system.mem_ctrls.rdQLenPdf::12                      9                       # What read queue length does an incoming req see
system.mem_ctrls.rdQLenPdf::13                      6                       # What read queue length does an incoming req see
system.mem_ctrls.rdQLenPdf::14                      3                       # What read queue length does an incoming req see
system.mem_ctrls.rdQLenPdf::15                      2                       # What read queue length does an incoming req see
system.mem_ctrls.rdQLenPdf::16                      2                       # What read queue length does an incoming req see
system.mem_ctrls.rdQLenPdf::17                      2                       # What read queue length does an incoming req see
system.mem_ctrls.rdQLenPdf::18                      1                       # What read queue length does an incoming req see
system.mem_ctrls.rdQLenPdf::19                      1                       # What read queue length does an incoming req see
system.mem_ctrls.rdQLenPdf::20                      1                       # What read queue length does an incoming req see
system.mem_ctrls.rdQLenPdf::21                      0                       # What read queue length does an incoming req see
system.mem_ctrls.rdQLenPdf::22                      0                       # What read queue length does an incoming req see
system.mem_ctrls.rdQLenPdf::23                      0                       # What read queue length does an incoming req see
system.mem_ctrls.rdQLenPdf::24                      0                       # What read queue length does an incoming req see
system.mem_ctrls.rdQLenPdf::25                      0                       # What read queue length does an incoming req see
system.mem_ctrls.rdQLenPdf::26                      0                       # What read queue length does an incoming req see
system.mem_ctrls.rdQLenPdf::27                      0                       # What read queue length does an incoming req see
system.mem_ctrls.rdQLenPdf::28                      0                       # What read queue length does an incoming req see
system.mem_ctrls.rdQLenPdf::29                      0                       # What read queue length does an incoming req see
system.mem_ctrls.rdQLenPdf::30                      0                       # What read queue length does an incoming req see
system.mem_ctrls.rdQLenPdf::31                      0                       # What read queue length does an incoming req see
system.mem_ctrls.wrQLenPdf::0                       1                       # What write queue length does an incoming req see
system.mem_ctrls.wrQLenPdf::1                       1                       # What write queue length does an incoming req see
system.mem_ctrls.wrQLenPdf::2                       1                       # What write queue length does an incoming req see
system.mem_ctrls.wrQLenPdf::3                       1                       # What write queue length does an incoming req see
system.mem_ctrls.wrQLenPdf::4                       1                       # What write queue length does an incoming req see
system.mem_ctrls.wrQLenPdf::5                       1                       # What write queue length does an incoming req see
system.mem_ctrls.wrQLenPdf::6                       1                       # What write queue length does an incoming req see
system.mem_ctrls.wrQLenPdf::7                       1                       # What write queue length does an incoming req see
system.mem_ctrls.wrQLenPdf::8                       1                       # What write queue length does an incoming req see
system.mem_ctrls.wrQLenPdf::9                       1                       # What write queue length does an incoming req see
system.mem_ctrls.wrQLenPdf::10                      1                       # What write queue length does an incoming req see
system.mem_ctrls.wrQLenPdf::11                      1                       # What write queue length does an incoming req see
system.mem_ctrls.wrQLenPdf::12                      1                       # What write queue length does an incoming req see
system.mem_ctrls.wrQLenPdf::13                      1                       # What write queue length does an incoming req see
system.mem_ctrls.wrQLenPdf::14                      1                       # What write queue length does an incoming req see
system.mem_ctrls.wrQLenPdf::15                   4678                       # What write queue length does an incoming req see
system.mem_ctrls.wrQLenPdf::16                   5731                       # What write queue length does an incoming req see
system.mem_ctrls.wrQLenPdf::17                  38865                       # What write queue length does an incoming req see
system.mem_ctrls.wrQLenPdf::18                  38823                       # What write queue length does an incoming req see
system.mem_ctrls.wrQLenPdf::19                  39136                       # What write queue length does an incoming req see
system.mem_ctrls.wrQLenPdf::20                  38844                       # What write queue length does an incoming req see
system.mem_ctrls.wrQLenPdf::21                  38678                       # What write queue length does an incoming req see
system.mem_ctrls.wrQLenPdf::22                  38548                       # What write queue length does an incoming req see
system.mem_ctrls.wrQLenPdf::23                  38561                       # What write queue length does an incoming req see
system.mem_ctrls.wrQLenPdf::24                  38599                       # What write queue length does an incoming req see
system.mem_ctrls.wrQLenPdf::25                  39119                       # What write queue length does an incoming req see
system.mem_ctrls.wrQLenPdf::26                  38955                       # What write queue length does an incoming req see
system.mem_ctrls.wrQLenPdf::27                  38756                       # What write queue length does an incoming req see
system.mem_ctrls.wrQLenPdf::28                  38699                       # What write queue length does an incoming req see
system.mem_ctrls.wrQLenPdf::29                  38538                       # What write queue length does an incoming req see
system.mem_ctrls.wrQLenPdf::30                  38459                       # What write queue length does an incoming req see
system.mem_ctrls.wrQLenPdf::31                  38461                       # What write queue length does an incoming req see
system.mem_ctrls.wrQLenPdf::32                  38359                       # What write queue length does an incoming req see
system.mem_ctrls.wrQLenPdf::33                    228                       # What write queue length does an incoming req see
system.mem_ctrls.wrQLenPdf::34                    206                       # What write queue length does an incoming req see
system.mem_ctrls.wrQLenPdf::35                    172                       # What write queue length does an incoming req see
system.mem_ctrls.wrQLenPdf::36                    154                       # What write queue length does an incoming req see
system.mem_ctrls.wrQLenPdf::37                    140                       # What write queue length does an incoming req see
system.mem_ctrls.wrQLenPdf::38                    124                       # What write queue length does an incoming req see
system.mem_ctrls.wrQLenPdf::39                    102                       # What write queue length does an incoming req see
system.mem_ctrls.wrQLenPdf::40                    106                       # What write queue length does an incoming req see
system.mem_ctrls.wrQLenPdf::41                     93                       # What write queue length does an incoming req see
system.mem_ctrls.wrQLenPdf::42                     96                       # What write queue length does an incoming req see
system.mem_ctrls.wrQLenPdf::43                    106                       # What write queue length does an incoming req see
system.mem_ctrls.wrQLenPdf::44                     95                       # What write queue length does an incoming req see
system.mem_ctrls.wrQLenPdf::45                     87                       # What write queue length does an incoming req see
system.mem_ctrls.wrQLenPdf::46                     84                       # What write queue length does an incoming req see
system.mem_ctrls.wrQLenPdf::47                     69                       # What write queue length does an incoming req see
system.mem_ctrls.wrQLenPdf::48                     69                       # What write queue length does an incoming req see
system.mem_ctrls.wrQLenPdf::49                     63                       # What write queue length does an incoming req see
system.mem_ctrls.wrQLenPdf::50                     63                       # What write queue length does an incoming req see
system.mem_ctrls.wrQLenPdf::51                     60                       # What write queue length does an incoming req see
system.mem_ctrls.wrQLenPdf::52                     63                       # What write queue length does an incoming req see
system.mem_ctrls.wrQLenPdf::53                     53                       # What write queue length does an incoming req see
system.mem_ctrls.wrQLenPdf::54                     46                       # What write queue length does an incoming req see
system.mem_ctrls.wrQLenPdf::55                     32                       # What write queue length does an incoming req see
system.mem_ctrls.wrQLenPdf::56                      9                       # What write queue length does an incoming req see
system.mem_ctrls.wrQLenPdf::57                      5                       # What write queue length does an incoming req see
system.mem_ctrls.wrQLenPdf::58                      2                       # What write queue length does an incoming req see
system.mem_ctrls.wrQLenPdf::59                      2                       # What write queue length does an incoming req see
system.mem_ctrls.wrQLenPdf::60                      1                       # What write queue length does an incoming req see
system.mem_ctrls.wrQLenPdf::61                      0                       # What write queue length does an incoming req see
system.mem_ctrls.wrQLenPdf::62                      0                       # What write queue length does an incoming req see
system.mem_ctrls.wrQLenPdf::63                      0                       # What write queue length does an incoming req see
system.mem_ctrls.bytesPerActivate::samples       294251                       # Bytes accessed per row activation
system.mem_ctrls.bytesPerActivate::mean    453.571515                       # Bytes accessed per row activation
system.mem_ctrls.bytesPerActivate::gmean   270.794539                       # Bytes accessed per row activation
system.mem_ctrls.bytesPerActivate::stdev   390.282130                       # Bytes accessed per row activation
system.mem_ctrls.bytesPerActivate::0-127        79740     27.10%     27.10% # Bytes accessed per row activation
system.mem_ctrls.bytesPerActivate::128-255        52348     17.79%     44.89% # Bytes accessed per row activation
system.mem_ctrls.bytesPerActivate::256-383        28085      9.54%     54.43% # Bytes accessed per row activation
system.mem_ctrls.bytesPerActivate::384-511        17094      5.81%     60.24% # Bytes accessed per row activation
system.mem_ctrls.bytesPerActivate::512-639        14229      4.84%     65.08% # Bytes accessed per row activation
system.mem_ctrls.bytesPerActivate::640-767        11491      3.91%     68.98% # Bytes accessed per row activation
system.mem_ctrls.bytesPerActivate::768-895        11754      3.99%     72.98% # Bytes accessed per row activation
system.mem_ctrls.bytesPerActivate::896-1023         9469      3.22%     76.20% # Bytes accessed per row activation
system.mem_ctrls.bytesPerActivate::1024-1151        70041     23.80%    100.00% # Bytes accessed per row activation
system.mem_ctrls.bytesPerActivate::total       294251                       # Bytes accessed per row activation
system.mem_ctrls.rdPerTurnAround::samples        38172                       # Reads before turning the bus around for writes
system.mem_ctrls.rdPerTurnAround::mean      38.070078                       # Reads before turning the bus around for writes
system.mem_ctrls.rdPerTurnAround::stdev    336.616903                       # Reads before turning the bus around for writes
system.mem_ctrls.rdPerTurnAround::0-2047        38165     99.98%     99.98% # Reads before turning the bus around for writes
system.mem_ctrls.rdPerTurnAround::2048-4095            1      0.00%     99.98% # Reads before turning the bus around for writes
system.mem_ctrls.rdPerTurnAround::4096-6143            1      0.00%     99.99% # Reads before turning the bus around for writes
system.mem_ctrls.rdPerTurnAround::6144-8191            3      0.01%     99.99% # Reads before turning the bus around for writes
system.mem_ctrls.rdPerTurnAround::24576-26623            1      0.00%    100.00% # Reads before turning the bus around for writes
system.mem_ctrls.rdPerTurnAround::57344-59391            1      0.00%    100.00% # Reads before turning the bus around for writes
system.mem_ctrls.rdPerTurnAround::total         38172                       # Reads before turning the bus around for writes
system.mem_ctrls.wrPerTurnAround::samples        38172                       # Writes before turning the bus around for reads
system.mem_ctrls.wrPerTurnAround::mean      16.559913                       # Writes before turning the bus around for reads
system.mem_ctrls.wrPerTurnAround::gmean     16.459526                       # Writes before turning the bus around for reads
system.mem_ctrls.wrPerTurnAround::stdev      2.330559                       # Writes before turning the bus around for reads
system.mem_ctrls.wrPerTurnAround::16-17         33439     87.60%     87.60% # Writes before turning the bus around for reads
system.mem_ctrls.wrPerTurnAround::18-19          3052      8.00%     95.60% # Writes before turning the bus around for reads
system.mem_ctrls.wrPerTurnAround::20-21           483      1.27%     96.86% # Writes before turning the bus around for reads
system.mem_ctrls.wrPerTurnAround::22-23           388      1.02%     97.88% # Writes before turning the bus around for reads
system.mem_ctrls.wrPerTurnAround::24-25           355      0.93%     98.81% # Writes before turning the bus around for reads
system.mem_ctrls.wrPerTurnAround::26-27           260      0.68%     99.49% # Writes before turning the bus around for reads
system.mem_ctrls.wrPerTurnAround::28-29            68      0.18%     99.67% # Writes before turning the bus around for reads
system.mem_ctrls.wrPerTurnAround::30-31            11      0.03%     99.70% # Writes before turning the bus around for reads
system.mem_ctrls.wrPerTurnAround::32-33            19      0.05%     99.75% # Writes before turning the bus around for reads
system.mem_ctrls.wrPerTurnAround::34-35             4      0.01%     99.76% # Writes before turning the bus around for reads
system.mem_ctrls.wrPerTurnAround::36-37             6      0.02%     99.77% # Writes before turning the bus around for reads
system.mem_ctrls.wrPerTurnAround::38-39             3      0.01%     99.78% # Writes before turning the bus around for reads
system.mem_ctrls.wrPerTurnAround::40-41            12      0.03%     99.81% # Writes before turning the bus around for reads
system.mem_ctrls.wrPerTurnAround::42-43            11      0.03%     99.84% # Writes before turning the bus around for reads
system.mem_ctrls.wrPerTurnAround::44-45             8      0.02%     99.86% # Writes before turning the bus around for reads
system.mem_ctrls.wrPerTurnAround::46-47             5      0.01%     99.87% # Writes before turning the bus around for reads
system.mem_ctrls.wrPerTurnAround::48-49             5      0.01%     99.89% # Writes before turning the bus around for reads
system.mem_ctrls.wrPerTurnAround::50-51             5      0.01%     99.90% # Writes before turning the bus around for reads
system.mem_ctrls.wrPerTurnAround::52-53            16      0.04%     99.94% # Writes before turning the bus around for reads
system.mem_ctrls.wrPerTurnAround::54-55            13      0.03%     99.98% # Writes before turning the bus around for reads
system.mem_ctrls.wrPerTurnAround::56-57             3      0.01%     99.98% # Writes before turning the bus around for reads
system.mem_ctrls.wrPerTurnAround::60-61             2      0.01%     99.99% # Writes before turning the bus around for reads
system.mem_ctrls.wrPerTurnAround::70-71             1      0.00%     99.99% # Writes before turning the bus around for reads
system.mem_ctrls.wrPerTurnAround::74-75             3      0.01%    100.00% # Writes before turning the bus around for reads
system.mem_ctrls.wrPerTurnAround::total         38172                       # Writes before turning the bus around for reads
system.mem_ctrls.totQLat                  24714370171                       # Total ticks spent queuing
system.mem_ctrls.totMemAccLat             51962845171                       # Total ticks spent from burst creation until serviced by the DRAM
system.mem_ctrls.totBusLat                 7266260000                       # Total ticks spent in databus transfers
system.mem_ctrls.avgQLat                     17006.25                       # Average queueing delay per DRAM burst
system.mem_ctrls.avgBusLat                    5000.00                       # Average bus latency per DRAM burst
system.mem_ctrls.avgMemAccLat                35756.25                       # Average memory access latency per DRAM burst
system.mem_ctrls.avgRdBW                        36.63                       # Average DRAM read bandwidth in MiByte/s
system.mem_ctrls.avgWrBW                        15.93                       # Average achieved write bandwidth in MiByte/s
system.mem_ctrls.avgRdBWSys                      9.16                       # Average system read bandwidth in MiByte/s
system.mem_ctrls.avgWrBWSys                      7.57                       # Average system write bandwidth in MiByte/s
system.mem_ctrls.peakBW                      12800.00                       # Theoretical peak bandwidth in MiByte/s
system.mem_ctrls.busUtil                         0.41                       # Data bus utilization in percentage
system.mem_ctrls.busUtilRead                     0.29                       # Data bus utilization in percentage for reads
system.mem_ctrls.busUtilWrite                    0.12                       # Data bus utilization in percentage for writes
system.mem_ctrls.avgRdQLen                       1.01                       # Average read queue length when enqueuing
system.mem_ctrls.avgWrQLen                      25.57                       # Average write queue length when enqueuing
system.mem_ctrls.readRowHits                  1284342                       # Number of row buffer hits during reads
system.mem_ctrls.writeRowHits                  506782                       # Number of row buffer hits during writes
system.mem_ctrls.readRowHitRate                 88.38                       # Row buffer hit rate for reads
system.mem_ctrls.writeRowHitRate                80.17                       # Row buffer hit rate for writes
system.mem_ctrls.avgGap                     956319.84                       # Average gap between requests
system.mem_ctrls.pageHitRate                    85.89                       # Row buffer hit rate, read and write combined
system.mem_ctrls_0.actEnergy               1065195180                       # Energy for activate commands per rank (pJ)
system.mem_ctrls_0.preEnergy                566160870                       # Energy for precharge commands per rank (pJ)
system.mem_ctrls_0.readEnergy              5247293100                       # Energy for read commands per rank (pJ)
system.mem_ctrls_0.writeEnergy             1665858600                       # Energy for write commands per rank (pJ)
system.mem_ctrls_0.refreshEnergy         20608879200.000004                       # Energy for refresh commands per rank (pJ)
system.mem_ctrls_0.actBackEnergy          19661886660                       # Energy for active background per rank (pJ)
system.mem_ctrls_0.preBackEnergy           1289925600                       # Energy for precharge background per rank (pJ)
system.mem_ctrls_0.actPowerDownEnergy     52036561980                       # Energy for active power-down per rank (pJ)
system.mem_ctrls_0.prePowerDownEnergy     23579404320                       # Energy for precharge power-down per rank (pJ)
system.mem_ctrls_0.selfRefreshEnergy     559149662220                       # Energy for self refresh per rank (pJ)
system.mem_ctrls_0.totalEnergy           684876619740                       # Total energy per rank (pJ)
system.mem_ctrls_0.averagePower            269.701257                       # Core power per rank (mW)
system.mem_ctrls_0.totalIdleTime         2492898728750                       # Total Idle time Per DRAM Rank
system.mem_ctrls_0.memoryStateTime::IDLE   1893168500                       # Time in different power states
system.mem_ctrls_0.memoryStateTime::REF    8751562000                       # Time in different power states
system.mem_ctrls_0.memoryStateTime::SREF 2317379593750                       # Time in different power states
system.mem_ctrls_0.memoryStateTime::PRE_PDN  61404902750                       # Time in different power states
system.mem_ctrls_0.memoryStateTime::ACT   35846105500                       # Time in different power states
system.mem_ctrls_0.memoryStateTime::ACT_PDN 114114458000                       # Time in different power states
system.mem_ctrls_1.actEnergy               1035771240                       # Energy for activate commands per rank (pJ)
system.mem_ctrls_1.preEnergy                550521675                       # Energy for precharge commands per rank (pJ)
system.mem_ctrls_1.readEnergy              5128926180                       # Energy for read commands per rank (pJ)
system.mem_ctrls_1.writeEnergy             1633833900                       # Energy for write commands per rank (pJ)
system.mem_ctrls_1.refreshEnergy         19624225920.000004                       # Energy for refresh commands per rank (pJ)
system.mem_ctrls_1.actBackEnergy          19730595600                       # Energy for active background per rank (pJ)
system.mem_ctrls_1.preBackEnergy           1221152640                       # Energy for precharge background per rank (pJ)
system.mem_ctrls_1.actPowerDownEnergy     48193133490                       # Energy for active power-down per rank (pJ)
system.mem_ctrls_1.prePowerDownEnergy     22543760160                       # Energy for precharge power-down per rank (pJ)
system.mem_ctrls_1.selfRefreshEnergy     561726109740                       # Energy for self refresh per rank (pJ)
system.mem_ctrls_1.totalEnergy           681395561565                       # Total energy per rank (pJ)
system.mem_ctrls_1.averagePower            268.330433                       # Core power per rank (mW)
system.mem_ctrls_1.totalIdleTime         2492924335500                       # Total Idle time Per DRAM Rank
system.mem_ctrls_1.memoryStateTime::IDLE   1790726750                       # Time in different power states
system.mem_ctrls_1.memoryStateTime::REF    8333974000                       # Time in different power states
system.mem_ctrls_1.memoryStateTime::SREF 2328529726250                       # Time in different power states
system.mem_ctrls_1.memoryStateTime::PRE_PDN  58707938750                       # Time in different power states
system.mem_ctrls_1.memoryStateTime::ACT   36340698500                       # Time in different power states
system.mem_ctrls_1.memoryStateTime::ACT_PDN 105686726250                       # Time in different power states
system.pwrStateResidencyTicks::UNDEFINED 2539389790500                       # Cumulative time (in ticks) in various power states
system.bridge.pwrStateResidencyTicks::UNDEFINED 2539389790500                       # Cumulative time (in ticks) in various power states
system.cpu_voltage_domain.voltage                   1                       # Voltage in Volts
system.cpu_clk_domain.clock                       500                       # Clock period in ticks
system.cpu0.dtb.fetch_hits                          0                       # ITB hits
system.cpu0.dtb.fetch_misses                        0                       # ITB misses
system.cpu0.dtb.fetch_acv                           0                       # ITB acv
system.cpu0.dtb.fetch_accesses                      0                       # ITB accesses
system.cpu0.dtb.read_hits                    11609312                       # DTB read hits
system.cpu0.dtb.read_misses                      3106                       # DTB read misses
system.cpu0.dtb.read_acv                            0                       # DTB read access violations
system.cpu0.dtb.read_accesses                  246038                       # DTB read accesses
system.cpu0.dtb.write_hits                    5633669                       # DTB write hits
system.cpu0.dtb.write_misses                      348                       # DTB write misses
system.cpu0.dtb.write_acv                          33                       # DTB write access violations
system.cpu0.dtb.write_accesses                 108494                       # DTB write accesses
system.cpu0.dtb.data_hits                    17242981                       # DTB hits
system.cpu0.dtb.data_misses                      3454                       # DTB misses
system.cpu0.dtb.data_acv                           33                       # DTB access violations
system.cpu0.dtb.data_accesses                  354532                       # DTB accesses
system.cpu0.itb.fetch_hits                    2541173                       # ITB hits
system.cpu0.itb.fetch_misses                     1280                       # ITB misses
system.cpu0.itb.fetch_acv                           0                       # ITB acv
system.cpu0.itb.fetch_accesses                2542453                       # ITB accesses
system.cpu0.itb.read_hits                           0                       # DTB read hits
system.cpu0.itb.read_misses                         0                       # DTB read misses
system.cpu0.itb.read_acv                            0                       # DTB read access violations
system.cpu0.itb.read_accesses                       0                       # DTB read accesses
system.cpu0.itb.write_hits                          0                       # DTB write hits
system.cpu0.itb.write_misses                        0                       # DTB write misses
system.cpu0.itb.write_acv                           0                       # DTB write access violations
system.cpu0.itb.write_accesses                      0                       # DTB write accesses
system.cpu0.itb.data_hits                           0                       # DTB hits
system.cpu0.itb.data_misses                         0                       # DTB misses
system.cpu0.itb.data_acv                            0                       # DTB access violations
system.cpu0.itb.data_accesses                       0                       # DTB accesses
system.cpu0.numPwrStateTransitions              14180                       # Number of power state transitions
system.cpu0.pwrStateClkGateDist::samples         7090                       # Distribution of time spent in the clock gated state
system.cpu0.pwrStateClkGateDist::mean    323642698.942172                       # Distribution of time spent in the clock gated state
system.cpu0.pwrStateClkGateDist::stdev   448255519.809222                       # Distribution of time spent in the clock gated state
system.cpu0.pwrStateClkGateDist::1000-5e+10         7090    100.00%    100.00% # Distribution of time spent in the clock gated state
system.cpu0.pwrStateClkGateDist::min_value        51000                       # Distribution of time spent in the clock gated state
system.cpu0.pwrStateClkGateDist::max_value   2000000000                       # Distribution of time spent in the clock gated state
system.cpu0.pwrStateClkGateDist::total           7090                       # Distribution of time spent in the clock gated state
system.cpu0.pwrStateResidencyTicks::ON   244763055000                       # Cumulative time (in ticks) in various power states
system.cpu0.pwrStateResidencyTicks::CLK_GATED 2294626735500                       # Cumulative time (in ticks) in various power states
system.cpu0.numCycles                      5078779581                       # number of cpu cycles simulated
system.cpu0.numWorkItemsStarted                     0                       # number of work items this cpu started
system.cpu0.numWorkItemsCompleted                   0                       # number of work items this cpu completed
system.cpu0.kern.inst.arm                           0                       # number of arm instructions executed
system.cpu0.kern.inst.quiesce                    7090                       # number of quiesce instructions executed
system.cpu0.kern.callpal::cserve                    1      0.00%      0.00% # number of callpals executed
system.cpu0.kern.callpal::wripir                 1043      0.82%      0.82% # number of callpals executed
system.cpu0.kern.callpal::wrmces                    1      0.00%      0.82% # number of callpals executed
system.cpu0.kern.callpal::wrfen                     1      0.00%      0.82% # number of callpals executed
system.cpu0.kern.callpal::wrvptptr                  1      0.00%      0.82% # number of callpals executed
system.cpu0.kern.callpal::swpctx                 2056      1.61%      2.43% # number of callpals executed
system.cpu0.kern.callpal::tbi                      11      0.01%      2.44% # number of callpals executed
system.cpu0.kern.callpal::wrent                     7      0.01%      2.44% # number of callpals executed
system.cpu0.kern.callpal::swpipl               115127     90.13%     92.58% # number of callpals executed
system.cpu0.kern.callpal::rdps                   5343      4.18%     96.76% # number of callpals executed
system.cpu0.kern.callpal::wrkgp                     1      0.00%     96.76% # number of callpals executed
system.cpu0.kern.callpal::wrusp                     4      0.00%     96.76% # number of callpals executed
system.cpu0.kern.callpal::rdusp                     3      0.00%     96.77% # number of callpals executed
system.cpu0.kern.callpal::whami                     2      0.00%     96.77% # number of callpals executed
system.cpu0.kern.callpal::rti                    3922      3.07%     99.84% # number of callpals executed
system.cpu0.kern.callpal::callsys                 151      0.12%     99.96% # number of callpals executed
system.cpu0.kern.callpal::imb                      57      0.04%    100.00% # number of callpals executed
system.cpu0.kern.callpal::total                127731                       # number of callpals executed
system.cpu0.kern.inst.hwrei                    135817                       # number of hwrei instructions executed
system.cpu0.kern.mode_switch::kernel             5867                       # number of protection mode switches
system.cpu0.kern.mode_switch::user                482                       # number of protection mode switches
system.cpu0.kern.mode_switch::idle                  0                       # number of protection mode switches
system.cpu0.kern.mode_good::kernel                481                      
system.cpu0.kern.mode_good::user                  482                      
system.cpu0.kern.mode_good::idle                    0                      
system.cpu0.kern.mode_switch_good::kernel     0.081984                       # fraction of useful protection mode switches
system.cpu0.kern.mode_switch_good::user             1                       # fraction of useful protection mode switches
system.cpu0.kern.mode_switch_good::idle           nan                       # fraction of useful protection mode switches
system.cpu0.kern.mode_switch_good::total     0.151677                       # fraction of useful protection mode switches
system.cpu0.kern.mode_ticks::kernel      2535858130000     99.86%     99.86% # number of ticks spent at the given mode
system.cpu0.kern.mode_ticks::user          3530064500      0.14%    100.00% # number of ticks spent at the given mode
system.cpu0.kern.mode_ticks::idle                   0      0.00%    100.00% # number of ticks spent at the given mode
system.cpu0.kern.swap_context                    2057                       # number of times the context was actually changed
system.cpu0.kern.ipl_count::0                   46567     38.06%     38.06% # number of times we switched to this ipl
system.cpu0.kern.ipl_count::21                     11      0.01%     38.06% # number of times we switched to this ipl
system.cpu0.kern.ipl_count::22                   2546      2.08%     40.14% # number of times we switched to this ipl
system.cpu0.kern.ipl_count::30                    762      0.62%     40.77% # number of times we switched to this ipl
system.cpu0.kern.ipl_count::31                  72481     59.23%    100.00% # number of times we switched to this ipl
system.cpu0.kern.ipl_count::total              122367                       # number of times we switched to this ipl
system.cpu0.kern.ipl_good::0                    46432     48.66%     48.66% # number of times we switched to this ipl from a different ipl
system.cpu0.kern.ipl_good::21                      11      0.01%     48.67% # number of times we switched to this ipl from a different ipl
system.cpu0.kern.ipl_good::22                    2546      2.67%     51.34% # number of times we switched to this ipl from a different ipl
system.cpu0.kern.ipl_good::30                     762      0.80%     52.14% # number of times we switched to this ipl from a different ipl
system.cpu0.kern.ipl_good::31                   45672     47.86%    100.00% # number of times we switched to this ipl from a different ipl
system.cpu0.kern.ipl_good::total                95423                       # number of times we switched to this ipl from a different ipl
system.cpu0.kern.ipl_ticks::0            2440751733500     96.12%     96.12% # number of cycles we spent at this ipl
system.cpu0.kern.ipl_ticks::21               11042500      0.00%     96.12% # number of cycles we spent at this ipl
system.cpu0.kern.ipl_ticks::22             1601501000      0.06%     96.18% # number of cycles we spent at this ipl
system.cpu0.kern.ipl_ticks::30             1094837000      0.04%     96.22% # number of cycles we spent at this ipl
system.cpu0.kern.ipl_ticks::31            95929082500      3.78%    100.00% # number of cycles we spent at this ipl
system.cpu0.kern.ipl_ticks::total        2539388196500                       # number of cycles we spent at this ipl
system.cpu0.kern.ipl_used::0                 0.997101                       # fraction of swpipl calls that actually changed the ipl
system.cpu0.kern.ipl_used::21                       1                       # fraction of swpipl calls that actually changed the ipl
system.cpu0.kern.ipl_used::22                       1                       # fraction of swpipl calls that actually changed the ipl
system.cpu0.kern.ipl_used::30                       1                       # fraction of swpipl calls that actually changed the ipl
system.cpu0.kern.ipl_used::31                0.630124                       # fraction of swpipl calls that actually changed the ipl
system.cpu0.kern.ipl_used::total             0.779810                       # fraction of swpipl calls that actually changed the ipl
system.cpu0.committedInsts                   68143072                       # Number of instructions committed
system.cpu0.committedOps                     68143072                       # Number of ops (including micro ops) committed
system.cpu0.num_int_alu_accesses             65831019                       # Number of integer alu accesses
system.cpu0.num_fp_alu_accesses                233687                       # Number of float alu accesses
system.cpu0.num_vec_alu_accesses                    0                       # Number of vector alu accesses
system.cpu0.num_func_calls                    2221704                       # number of times a function call or return occured
system.cpu0.num_conditional_control_insts      9083419                       # number of instructions that are conditional controls
system.cpu0.num_int_insts                    65831019                       # number of integer instructions
system.cpu0.num_fp_insts                       233687                       # number of float instructions
system.cpu0.num_vec_insts                           0                       # number of vector instructions
system.cpu0.num_int_register_reads           89392934                       # number of times the integer registers were read
system.cpu0.num_int_register_writes          50185264                       # number of times the integer registers were written
system.cpu0.num_fp_register_reads               80677                       # number of times the floating registers were read
system.cpu0.num_fp_register_writes              82073                       # number of times the floating registers were written
system.cpu0.num_vec_register_reads                  0                       # number of times the vector registers were read
system.cpu0.num_vec_register_writes                 0                       # number of times the vector registers were written
system.cpu0.num_mem_refs                     17268649                       # number of memory refs
system.cpu0.num_load_insts                   11624080                       # Number of load instructions
system.cpu0.num_store_insts                   5644569                       # Number of store instructions
system.cpu0.num_idle_cycles              4589253470.998193                       # Number of idle cycles
system.cpu0.num_busy_cycles              489526110.001807                       # Number of busy cycles
system.cpu0.not_idle_fraction                0.096387                       # Percentage of non-idle cycles
system.cpu0.idle_fraction                    0.903613                       # Percentage of idle cycles
system.cpu0.Branches                         11723797                       # Number of branches fetched
system.cpu0.op_class::No_OpClass              1397377      2.05%      2.05% # Class of executed instruction
system.cpu0.op_class::IntAlu                 48306645     70.89%     72.94% # Class of executed instruction
system.cpu0.op_class::IntMult                  151773      0.22%     73.16% # Class of executed instruction
system.cpu0.op_class::IntDiv                        0      0.00%     73.16% # Class of executed instruction
system.cpu0.op_class::FloatAdd                  95477      0.14%     73.30% # Class of executed instruction
system.cpu0.op_class::FloatCmp                      0      0.00%     73.30% # Class of executed instruction
system.cpu0.op_class::FloatCvt                      0      0.00%     73.30% # Class of executed instruction
system.cpu0.op_class::FloatMult                     0      0.00%     73.30% # Class of executed instruction
system.cpu0.op_class::FloatMultAcc                  0      0.00%     73.30% # Class of executed instruction
system.cpu0.op_class::FloatDiv                   2102      0.00%     73.30% # Class of executed instruction
system.cpu0.op_class::FloatMisc                     0      0.00%     73.30% # Class of executed instruction
system.cpu0.op_class::FloatSqrt                     0      0.00%     73.30% # Class of executed instruction
system.cpu0.op_class::SimdAdd                       0      0.00%     73.30% # Class of executed instruction
system.cpu0.op_class::SimdAddAcc                    0      0.00%     73.30% # Class of executed instruction
system.cpu0.op_class::SimdAlu                       0      0.00%     73.30% # Class of executed instruction
system.cpu0.op_class::SimdCmp                       0      0.00%     73.30% # Class of executed instruction
system.cpu0.op_class::SimdCvt                       0      0.00%     73.30% # Class of executed instruction
system.cpu0.op_class::SimdMisc                      0      0.00%     73.30% # Class of executed instruction
system.cpu0.op_class::SimdMult                      0      0.00%     73.30% # Class of executed instruction
system.cpu0.op_class::SimdMultAcc                   0      0.00%     73.30% # Class of executed instruction
system.cpu0.op_class::SimdShift                     0      0.00%     73.30% # Class of executed instruction
system.cpu0.op_class::SimdShiftAcc                  0      0.00%     73.30% # Class of executed instruction
system.cpu0.op_class::SimdSqrt                      0      0.00%     73.30% # Class of executed instruction
system.cpu0.op_class::SimdFloatAdd                  0      0.00%     73.30% # Class of executed instruction
system.cpu0.op_class::SimdFloatAlu                  0      0.00%     73.30% # Class of executed instruction
system.cpu0.op_class::SimdFloatCmp                  0      0.00%     73.30% # Class of executed instruction
system.cpu0.op_class::SimdFloatCvt                  0      0.00%     73.30% # Class of executed instruction
system.cpu0.op_class::SimdFloatDiv                  0      0.00%     73.30% # Class of executed instruction
system.cpu0.op_class::SimdFloatMisc                 0      0.00%     73.30% # Class of executed instruction
system.cpu0.op_class::SimdFloatMult                 0      0.00%     73.30% # Class of executed instruction
system.cpu0.op_class::SimdFloatMultAcc              0      0.00%     73.30% # Class of executed instruction
system.cpu0.op_class::SimdFloatSqrt                 0      0.00%     73.30% # Class of executed instruction
system.cpu0.op_class::MemRead                11875927     17.43%     90.73% # Class of executed instruction
system.cpu0.op_class::MemWrite                5595163      8.21%     98.94% # Class of executed instruction
system.cpu0.op_class::FloatMemRead              69805      0.10%     99.04% # Class of executed instruction
system.cpu0.op_class::FloatMemWrite             66303      0.10%     99.14% # Class of executed instruction
system.cpu0.op_class::IprAccess                585987      0.86%    100.00% # Class of executed instruction
system.cpu0.op_class::InstPrefetch                  0      0.00%    100.00% # Class of executed instruction
system.cpu0.op_class::total                  68146559                       # Class of executed instruction
system.cpu0.dcache.tags.pwrStateResidencyTicks::UNDEFINED 2539389790500                       # Cumulative time (in ticks) in various power states
system.cpu0.dcache.tags.replacements          3128088                       # number of replacements
system.cpu0.dcache.tags.tagsinuse         2027.424710                       # Cycle average of tags in use
system.cpu0.dcache.tags.total_refs           14067968                       # Total number of references to valid blocks.
system.cpu0.dcache.tags.sampled_refs          3128088                       # Sample count of references to valid blocks.
system.cpu0.dcache.tags.avg_refs             4.497306                       # Average number of references to valid blocks.
system.cpu0.dcache.tags.warmup_cycle        265721500                       # Cycle when the warmup percentage was hit.
system.cpu0.dcache.tags.occ_blocks::cpu0.data  2027.424710                       # Average occupied blocks per requestor
system.cpu0.dcache.tags.occ_percent::cpu0.data     0.989953                       # Average percentage of cache occupancy
system.cpu0.dcache.tags.occ_percent::total     0.989953                       # Average percentage of cache occupancy
system.cpu0.dcache.tags.occ_task_id_blocks::1024         2048                       # Occupied blocks per task id
system.cpu0.dcache.tags.age_task_id_blocks_1024::0          113                       # Occupied blocks per task id
system.cpu0.dcache.tags.age_task_id_blocks_1024::1          876                       # Occupied blocks per task id
system.cpu0.dcache.tags.age_task_id_blocks_1024::2         1059                       # Occupied blocks per task id
system.cpu0.dcache.tags.occ_task_id_percent::1024            1                       # Percentage of cache occupancy per task id
system.cpu0.dcache.tags.tag_accesses         20421611                       # Number of tag accesses
system.cpu0.dcache.tags.data_accesses        20421611                       # Number of data accesses
system.cpu0.dcache.pwrStateResidencyTicks::UNDEFINED 2539389790500                       # Cumulative time (in ticks) in various power states
system.cpu0.dcache.ReadReq_hits::cpu0.data      9259879                       # number of ReadReq hits
system.cpu0.dcache.ReadReq_hits::total        9259879                       # number of ReadReq hits
system.cpu0.dcache.WriteReq_hits::cpu0.data      4348684                       # number of WriteReq hits
system.cpu0.dcache.WriteReq_hits::total       4348684                       # number of WriteReq hits
system.cpu0.dcache.LoadLockedReq_hits::cpu0.data       209081                       # number of LoadLockedReq hits
system.cpu0.dcache.LoadLockedReq_hits::total       209081                       # number of LoadLockedReq hits
system.cpu0.dcache.StoreCondReq_hits::cpu0.data       214226                       # number of StoreCondReq hits
system.cpu0.dcache.StoreCondReq_hits::total       214226                       # number of StoreCondReq hits
system.cpu0.dcache.demand_hits::cpu0.data     13608563                       # number of demand (read+write) hits
system.cpu0.dcache.demand_hits::total        13608563                       # number of demand (read+write) hits
system.cpu0.dcache.overall_hits::cpu0.data     13608563                       # number of overall hits
system.cpu0.dcache.overall_hits::total       13608563                       # number of overall hits
system.cpu0.dcache.ReadReq_misses::cpu0.data      2127378                       # number of ReadReq misses
system.cpu0.dcache.ReadReq_misses::total      2127378                       # number of ReadReq misses
system.cpu0.dcache.WriteReq_misses::cpu0.data      1058031                       # number of WriteReq misses
system.cpu0.dcache.WriteReq_misses::total      1058031                       # number of WriteReq misses
system.cpu0.dcache.LoadLockedReq_misses::cpu0.data        19414                       # number of LoadLockedReq misses
system.cpu0.dcache.LoadLockedReq_misses::total        19414                       # number of LoadLockedReq misses
system.cpu0.dcache.StoreCondReq_misses::cpu0.data         9415                       # number of StoreCondReq misses
system.cpu0.dcache.StoreCondReq_misses::total         9415                       # number of StoreCondReq misses
system.cpu0.dcache.demand_misses::cpu0.data      3185409                       # number of demand (read+write) misses
system.cpu0.dcache.demand_misses::total       3185409                       # number of demand (read+write) misses
system.cpu0.dcache.overall_misses::cpu0.data      3185409                       # number of overall misses
system.cpu0.dcache.overall_misses::total      3185409                       # number of overall misses
system.cpu0.dcache.ReadReq_miss_latency::cpu0.data  52458356000                       # number of ReadReq miss cycles
system.cpu0.dcache.ReadReq_miss_latency::total  52458356000                       # number of ReadReq miss cycles
system.cpu0.dcache.WriteReq_miss_latency::cpu0.data  66357776500                       # number of WriteReq miss cycles
system.cpu0.dcache.WriteReq_miss_latency::total  66357776500                       # number of WriteReq miss cycles
system.cpu0.dcache.LoadLockedReq_miss_latency::cpu0.data    245335500                       # number of LoadLockedReq miss cycles
system.cpu0.dcache.LoadLockedReq_miss_latency::total    245335500                       # number of LoadLockedReq miss cycles
system.cpu0.dcache.StoreCondReq_miss_latency::cpu0.data     51167000                       # number of StoreCondReq miss cycles
system.cpu0.dcache.StoreCondReq_miss_latency::total     51167000                       # number of StoreCondReq miss cycles
system.cpu0.dcache.demand_miss_latency::cpu0.data 118816132500                       # number of demand (read+write) miss cycles
system.cpu0.dcache.demand_miss_latency::total 118816132500                       # number of demand (read+write) miss cycles
system.cpu0.dcache.overall_miss_latency::cpu0.data 118816132500                       # number of overall miss cycles
system.cpu0.dcache.overall_miss_latency::total 118816132500                       # number of overall miss cycles
system.cpu0.dcache.ReadReq_accesses::cpu0.data     11387257                       # number of ReadReq accesses(hits+misses)
system.cpu0.dcache.ReadReq_accesses::total     11387257                       # number of ReadReq accesses(hits+misses)
system.cpu0.dcache.WriteReq_accesses::cpu0.data      5406715                       # number of WriteReq accesses(hits+misses)
system.cpu0.dcache.WriteReq_accesses::total      5406715                       # number of WriteReq accesses(hits+misses)
system.cpu0.dcache.LoadLockedReq_accesses::cpu0.data       228495                       # number of LoadLockedReq accesses(hits+misses)
system.cpu0.dcache.LoadLockedReq_accesses::total       228495                       # number of LoadLockedReq accesses(hits+misses)
system.cpu0.dcache.StoreCondReq_accesses::cpu0.data       223641                       # number of StoreCondReq accesses(hits+misses)
system.cpu0.dcache.StoreCondReq_accesses::total       223641                       # number of StoreCondReq accesses(hits+misses)
system.cpu0.dcache.demand_accesses::cpu0.data     16793972                       # number of demand (read+write) accesses
system.cpu0.dcache.demand_accesses::total     16793972                       # number of demand (read+write) accesses
system.cpu0.dcache.overall_accesses::cpu0.data     16793972                       # number of overall (read+write) accesses
system.cpu0.dcache.overall_accesses::total     16793972                       # number of overall (read+write) accesses
system.cpu0.dcache.ReadReq_miss_rate::cpu0.data     0.186821                       # miss rate for ReadReq accesses
system.cpu0.dcache.ReadReq_miss_rate::total     0.186821                       # miss rate for ReadReq accesses
system.cpu0.dcache.WriteReq_miss_rate::cpu0.data     0.195688                       # miss rate for WriteReq accesses
system.cpu0.dcache.WriteReq_miss_rate::total     0.195688                       # miss rate for WriteReq accesses
system.cpu0.dcache.LoadLockedReq_miss_rate::cpu0.data     0.084965                       # miss rate for LoadLockedReq accesses
system.cpu0.dcache.LoadLockedReq_miss_rate::total     0.084965                       # miss rate for LoadLockedReq accesses
system.cpu0.dcache.StoreCondReq_miss_rate::cpu0.data     0.042099                       # miss rate for StoreCondReq accesses
system.cpu0.dcache.StoreCondReq_miss_rate::total     0.042099                       # miss rate for StoreCondReq accesses
system.cpu0.dcache.demand_miss_rate::cpu0.data     0.189676                       # miss rate for demand accesses
system.cpu0.dcache.demand_miss_rate::total     0.189676                       # miss rate for demand accesses
system.cpu0.dcache.overall_miss_rate::cpu0.data     0.189676                       # miss rate for overall accesses
system.cpu0.dcache.overall_miss_rate::total     0.189676                       # miss rate for overall accesses
system.cpu0.dcache.ReadReq_avg_miss_latency::cpu0.data 24658.690651                       # average ReadReq miss latency
system.cpu0.dcache.ReadReq_avg_miss_latency::total 24658.690651                       # average ReadReq miss latency
system.cpu0.dcache.WriteReq_avg_miss_latency::cpu0.data 62718.177917                       # average WriteReq miss latency
system.cpu0.dcache.WriteReq_avg_miss_latency::total 62718.177917                       # average WriteReq miss latency
system.cpu0.dcache.LoadLockedReq_avg_miss_latency::cpu0.data 12637.040280                       # average LoadLockedReq miss latency
system.cpu0.dcache.LoadLockedReq_avg_miss_latency::total 12637.040280                       # average LoadLockedReq miss latency
system.cpu0.dcache.StoreCondReq_avg_miss_latency::cpu0.data  5434.625597                       # average StoreCondReq miss latency
system.cpu0.dcache.StoreCondReq_avg_miss_latency::total  5434.625597                       # average StoreCondReq miss latency
system.cpu0.dcache.demand_avg_miss_latency::cpu0.data 37300.118289                       # average overall miss latency
system.cpu0.dcache.demand_avg_miss_latency::total 37300.118289                       # average overall miss latency
system.cpu0.dcache.overall_avg_miss_latency::cpu0.data 37300.118289                       # average overall miss latency
system.cpu0.dcache.overall_avg_miss_latency::total 37300.118289                       # average overall miss latency
system.cpu0.dcache.blocked_cycles::no_mshrs            0                       # number of cycles access was blocked
system.cpu0.dcache.blocked_cycles::no_targets            0                       # number of cycles access was blocked
system.cpu0.dcache.blocked::no_mshrs                0                       # number of cycles access was blocked
system.cpu0.dcache.blocked::no_targets              0                       # number of cycles access was blocked
system.cpu0.dcache.avg_blocked_cycles::no_mshrs          nan                       # average number of cycles each access was blocked
system.cpu0.dcache.avg_blocked_cycles::no_targets          nan                       # average number of cycles each access was blocked
system.cpu0.dcache.writebacks::writebacks      2637540                       # number of writebacks
system.cpu0.dcache.writebacks::total          2637540                       # number of writebacks
system.cpu0.dcache.ReadReq_mshr_misses::cpu0.data      2127378                       # number of ReadReq MSHR misses
system.cpu0.dcache.ReadReq_mshr_misses::total      2127378                       # number of ReadReq MSHR misses
system.cpu0.dcache.WriteReq_mshr_misses::cpu0.data      1058031                       # number of WriteReq MSHR misses
system.cpu0.dcache.WriteReq_mshr_misses::total      1058031                       # number of WriteReq MSHR misses
system.cpu0.dcache.LoadLockedReq_mshr_misses::cpu0.data        19414                       # number of LoadLockedReq MSHR misses
system.cpu0.dcache.LoadLockedReq_mshr_misses::total        19414                       # number of LoadLockedReq MSHR misses
system.cpu0.dcache.StoreCondReq_mshr_misses::cpu0.data         9415                       # number of StoreCondReq MSHR misses
system.cpu0.dcache.StoreCondReq_mshr_misses::total         9415                       # number of StoreCondReq MSHR misses
system.cpu0.dcache.demand_mshr_misses::cpu0.data      3185409                       # number of demand (read+write) MSHR misses
system.cpu0.dcache.demand_mshr_misses::total      3185409                       # number of demand (read+write) MSHR misses
system.cpu0.dcache.overall_mshr_misses::cpu0.data      3185409                       # number of overall MSHR misses
system.cpu0.dcache.overall_mshr_misses::total      3185409                       # number of overall MSHR misses
system.cpu0.dcache.ReadReq_mshr_uncacheable::cpu0.data         5222                       # number of ReadReq MSHR uncacheable
system.cpu0.dcache.ReadReq_mshr_uncacheable::total         5222                       # number of ReadReq MSHR uncacheable
system.cpu0.dcache.WriteReq_mshr_uncacheable::cpu0.data         9909                       # number of WriteReq MSHR uncacheable
system.cpu0.dcache.WriteReq_mshr_uncacheable::total         9909                       # number of WriteReq MSHR uncacheable
system.cpu0.dcache.overall_mshr_uncacheable_misses::cpu0.data        15131                       # number of overall MSHR uncacheable misses
system.cpu0.dcache.overall_mshr_uncacheable_misses::total        15131                       # number of overall MSHR uncacheable misses
system.cpu0.dcache.ReadReq_mshr_miss_latency::cpu0.data  50330978000                       # number of ReadReq MSHR miss cycles
system.cpu0.dcache.ReadReq_mshr_miss_latency::total  50330978000                       # number of ReadReq MSHR miss cycles
system.cpu0.dcache.WriteReq_mshr_miss_latency::cpu0.data  65299745500                       # number of WriteReq MSHR miss cycles
system.cpu0.dcache.WriteReq_mshr_miss_latency::total  65299745500                       # number of WriteReq MSHR miss cycles
system.cpu0.dcache.LoadLockedReq_mshr_miss_latency::cpu0.data    225921500                       # number of LoadLockedReq MSHR miss cycles
system.cpu0.dcache.LoadLockedReq_mshr_miss_latency::total    225921500                       # number of LoadLockedReq MSHR miss cycles
system.cpu0.dcache.StoreCondReq_mshr_miss_latency::cpu0.data     41752000                       # number of StoreCondReq MSHR miss cycles
system.cpu0.dcache.StoreCondReq_mshr_miss_latency::total     41752000                       # number of StoreCondReq MSHR miss cycles
system.cpu0.dcache.demand_mshr_miss_latency::cpu0.data 115630723500                       # number of demand (read+write) MSHR miss cycles
system.cpu0.dcache.demand_mshr_miss_latency::total 115630723500                       # number of demand (read+write) MSHR miss cycles
system.cpu0.dcache.overall_mshr_miss_latency::cpu0.data 115630723500                       # number of overall MSHR miss cycles
system.cpu0.dcache.overall_mshr_miss_latency::total 115630723500                       # number of overall MSHR miss cycles
system.cpu0.dcache.ReadReq_mshr_uncacheable_latency::cpu0.data   1189369000                       # number of ReadReq MSHR uncacheable cycles
system.cpu0.dcache.ReadReq_mshr_uncacheable_latency::total   1189369000                       # number of ReadReq MSHR uncacheable cycles
system.cpu0.dcache.overall_mshr_uncacheable_latency::cpu0.data   1189369000                       # number of overall MSHR uncacheable cycles
system.cpu0.dcache.overall_mshr_uncacheable_latency::total   1189369000                       # number of overall MSHR uncacheable cycles
system.cpu0.dcache.ReadReq_mshr_miss_rate::cpu0.data     0.186821                       # mshr miss rate for ReadReq accesses
system.cpu0.dcache.ReadReq_mshr_miss_rate::total     0.186821                       # mshr miss rate for ReadReq accesses
system.cpu0.dcache.WriteReq_mshr_miss_rate::cpu0.data     0.195688                       # mshr miss rate for WriteReq accesses
system.cpu0.dcache.WriteReq_mshr_miss_rate::total     0.195688                       # mshr miss rate for WriteReq accesses
system.cpu0.dcache.LoadLockedReq_mshr_miss_rate::cpu0.data     0.084965                       # mshr miss rate for LoadLockedReq accesses
system.cpu0.dcache.LoadLockedReq_mshr_miss_rate::total     0.084965                       # mshr miss rate for LoadLockedReq accesses
system.cpu0.dcache.StoreCondReq_mshr_miss_rate::cpu0.data     0.042099                       # mshr miss rate for StoreCondReq accesses
system.cpu0.dcache.StoreCondReq_mshr_miss_rate::total     0.042099                       # mshr miss rate for StoreCondReq accesses
system.cpu0.dcache.demand_mshr_miss_rate::cpu0.data     0.189676                       # mshr miss rate for demand accesses
system.cpu0.dcache.demand_mshr_miss_rate::total     0.189676                       # mshr miss rate for demand accesses
system.cpu0.dcache.overall_mshr_miss_rate::cpu0.data     0.189676                       # mshr miss rate for overall accesses
system.cpu0.dcache.overall_mshr_miss_rate::total     0.189676                       # mshr miss rate for overall accesses
system.cpu0.dcache.ReadReq_avg_mshr_miss_latency::cpu0.data 23658.690651                       # average ReadReq mshr miss latency
system.cpu0.dcache.ReadReq_avg_mshr_miss_latency::total 23658.690651                       # average ReadReq mshr miss latency
system.cpu0.dcache.WriteReq_avg_mshr_miss_latency::cpu0.data 61718.177917                       # average WriteReq mshr miss latency
system.cpu0.dcache.WriteReq_avg_mshr_miss_latency::total 61718.177917                       # average WriteReq mshr miss latency
system.cpu0.dcache.LoadLockedReq_avg_mshr_miss_latency::cpu0.data 11637.040280                       # average LoadLockedReq mshr miss latency
system.cpu0.dcache.LoadLockedReq_avg_mshr_miss_latency::total 11637.040280                       # average LoadLockedReq mshr miss latency
system.cpu0.dcache.StoreCondReq_avg_mshr_miss_latency::cpu0.data  4434.625597                       # average StoreCondReq mshr miss latency
system.cpu0.dcache.StoreCondReq_avg_mshr_miss_latency::total  4434.625597                       # average StoreCondReq mshr miss latency
system.cpu0.dcache.demand_avg_mshr_miss_latency::cpu0.data 36300.118289                       # average overall mshr miss latency
system.cpu0.dcache.demand_avg_mshr_miss_latency::total 36300.118289                       # average overall mshr miss latency
system.cpu0.dcache.overall_avg_mshr_miss_latency::cpu0.data 36300.118289                       # average overall mshr miss latency
system.cpu0.dcache.overall_avg_mshr_miss_latency::total 36300.118289                       # average overall mshr miss latency
system.cpu0.dcache.ReadReq_avg_mshr_uncacheable_latency::cpu0.data 227761.202604                       # average ReadReq mshr uncacheable latency
system.cpu0.dcache.ReadReq_avg_mshr_uncacheable_latency::total 227761.202604                       # average ReadReq mshr uncacheable latency
system.cpu0.dcache.overall_avg_mshr_uncacheable_latency::cpu0.data 78604.784879                       # average overall mshr uncacheable latency
system.cpu0.dcache.overall_avg_mshr_uncacheable_latency::total 78604.784879                       # average overall mshr uncacheable latency
system.cpu0.icache.tags.pwrStateResidencyTicks::UNDEFINED 2539389790500                       # Cumulative time (in ticks) in various power states
system.cpu0.icache.tags.replacements          2964977                       # number of replacements
system.cpu0.icache.tags.tagsinuse          511.852924                       # Cycle average of tags in use
system.cpu0.icache.tags.total_refs           65159787                       # Total number of references to valid blocks.
[...]
system.membus.pkt_size_system.l2.mem_side::total      1302469                       # Cumulative packet size per connected master and slave (bytes)
system.membus.pkt_size::total                 2027461                       # Cumulative packet size per connected master and slave (bytes)
system.membus.snoops                             4014                       # Total snoops (count)
system.membus.snoopTraffic                        496                       # Total snoop traffic (bytes)
system.membus.snoop_fanout::samples            100343                       # Request fanout histogram
system.membus.snoop_fanout::mean             0.025991                       # Request fanout histogram
system.membus.snoop_fanout::stdev            0.159109                       # Request fanout histogram
system.membus.snoop_fanout::underflows              0      0.00%      0.00% # Request fanout histogram
system.membus.snoop_fanout::0                   97735     97.40%     97.40% # Request fanout histogram
system.membus.snoop_fanout::1                    2608      2.60%    100.00% # Request fanout histogram
system.membus.snoop_fanout::2                       0      0.00%    100.00% # Request fanout histogram
system.membus.snoop_fanout::overflows               0      0.00%    100.00% # Request fanout histogram
system.membus.snoop_fanout::min_value               0                       # Request fanout histogram
system.membus.snoop_fanout::max_value               1                       # Request fanout histogram
system.membus.snoop_fanout::total              100343                       # Request fanout histogram
system.membus.reqLayer0.occupancy             1841000                       # Layer occupancy (ticks)
system.membus.reqLayer0.utilization               0.0                       # Layer utilization (%)
system.membus.reqLayer1.occupancy           268862180                       # Layer occupancy (ticks)
system.membus.reqLayer1.utilization               3.1                       # Layer utilization (%)
system.membus.respLayer1.occupancy            2787346                       # Layer occupancy (ticks)
system.membus.respLayer1.utilization              0.0                       # Layer utilization (%)
system.membus.respLayer2.occupancy          120919500                       # Layer occupancy (ticks)
system.membus.respLayer2.utilization              1.4                       # Layer utilization (%)
system.membus.badaddr_responder.pwrStateResidencyTicks::UNDEFINED   8726285000                       # Cumulative time (in ticks) in various power states
system.tol2bus.snoop_filter.tot_requests       499890                       # Total number of requests made to the snoop filter.
system.tol2bus.snoop_filter.hit_single_requests       234086                       # Number of requests hitting in the snoop filter with a single holder of the requested data.
system.tol2bus.snoop_filter.hit_multi_requests        55432                       # Number of requests hitting in the snoop filter with multiple (>1) holders of the requested data.
system.tol2bus.snoop_filter.tot_snoops           4511                       # Total number of snoops made to the snoop filter.
system.tol2bus.snoop_filter.hit_single_snoops         3992                       # Number of snoops hitting in the snoop filter with a single holder of the requested data.
system.tol2bus.snoop_filter.hit_multi_snoops          519                       # Number of snoops hitting in the snoop filter with multiple (>1) holders of the requested data.
system.tol2bus.pwrStateResidencyTicks::UNDEFINED   8726285000                       # Cumulative time (in ticks) in various power states
system.tol2bus.trans_dist::ReadReq                589                       # Transaction distribution
system.tol2bus.trans_dist::ReadResp            188780                       # Transaction distribution
system.tol2bus.trans_dist::WriteReq               484                       # Transaction distribution
system.tol2bus.trans_dist::WriteResp              484                       # Transaction distribution
system.tol2bus.trans_dist::WritebackDirty       112651                       # Transaction distribution
system.tol2bus.trans_dist::WritebackClean       135453                       # Transaction distribution
system.tol2bus.trans_dist::CleanEvict           53458                       # Transaction distribution
system.tol2bus.trans_dist::UpgradeReq            1225                       # Transaction distribution
system.tol2bus.trans_dist::SCUpgradeReq           343                       # Transaction distribution
system.tol2bus.trans_dist::UpgradeResp           1568                       # Transaction distribution
system.tol2bus.trans_dist::ReadExReq            62497                       # Transaction distribution
system.tol2bus.trans_dist::ReadExResp           62497                       # Transaction distribution
system.tol2bus.trans_dist::ReadCleanReq        135458                       # Transaction distribution
system.tol2bus.trans_dist::ReadSharedReq        52739                       # Transaction distribution
system.tol2bus.trans_dist::InvalidateReq         2577                       # Transaction distribution
system.tol2bus.pkt_count_system.cpu0.icache.mem_side::system.l2.cpu_side       114945                       # Packet count per connected master and slave (bytes)
system.tol2bus.pkt_count_system.cpu0.dcache.mem_side::system.l2.cpu_side       174591                       # Packet count per connected master and slave (bytes)
system.tol2bus.pkt_count_system.cpu1.icache.mem_side::system.l2.cpu_side        27197                       # Packet count per connected master and slave (bytes)
system.tol2bus.pkt_count_system.cpu1.dcache.mem_side::system.l2.cpu_side        26428                       # Packet count per connected master and slave (bytes)
system.tol2bus.pkt_count_system.cpu2.icache.mem_side::system.l2.cpu_side       175115                       # Packet count per connected master and slave (bytes)
system.tol2bus.pkt_count_system.cpu2.dcache.mem_side::system.l2.cpu_side        86850                       # Packet count per connected master and slave (bytes)
system.tol2bus.pkt_count_system.cpu3.icache.mem_side::system.l2.cpu_side        89106                       # Packet count per connected master and slave (bytes)
system.tol2bus.pkt_count_system.cpu3.dcache.mem_side::system.l2.cpu_side        50377                       # Packet count per connected master and slave (bytes)
system.tol2bus.pkt_count::total                744609                       # Packet count per connected master and slave (bytes)
system.tol2bus.pkt_size_system.cpu0.icache.mem_side::system.l2.cpu_side      1226048                       # Cumulative packet size per connected master and slave (bytes)
system.tol2bus.pkt_size_system.cpu0.dcache.mem_side::system.l2.cpu_side      1605404                       # Cumulative packet size per connected master and slave (bytes)
system.tol2bus.pkt_size_system.cpu1.icache.mem_side::system.l2.cpu_side       290096                       # Cumulative packet size per connected master and slave (bytes)
system.tol2bus.pkt_size_system.cpu1.dcache.mem_side::system.l2.cpu_side       228804                       # Cumulative packet size per connected master and slave (bytes)
system.tol2bus.pkt_size_system.cpu2.icache.mem_side::system.l2.cpu_side      1867872                       # Cumulative packet size per connected master and slave (bytes)
system.tol2bus.pkt_size_system.cpu2.dcache.mem_side::system.l2.cpu_side       764909                       # Cumulative packet size per connected master and slave (bytes)
system.tol2bus.pkt_size_system.cpu3.icache.mem_side::system.l2.cpu_side       950464                       # Cumulative packet size per connected master and slave (bytes)
system.tol2bus.pkt_size_system.cpu3.dcache.mem_side::system.l2.cpu_side       450072                       # Cumulative packet size per connected master and slave (bytes)
system.tol2bus.pkt_size::total                7383669                       # Cumulative packet size per connected master and slave (bytes)
system.tol2bus.snoops                           66219                       # Total snoops (count)
system.tol2bus.snoopTraffic                    599424                       # Total snoop traffic (bytes)
system.tol2bus.snoop_fanout::samples           309815                       # Request fanout histogram
system.tol2bus.snoop_fanout::mean            0.231296                       # Request fanout histogram
system.tol2bus.snoop_fanout::stdev           0.630413                       # Request fanout histogram
system.tol2bus.snoop_fanout::underflows             0      0.00%      0.00% # Request fanout histogram
system.tol2bus.snoop_fanout::0                 263632     85.09%     85.09% # Request fanout histogram
system.tol2bus.snoop_fanout::1                  29248      9.44%     94.53% # Request fanout histogram
system.tol2bus.snoop_fanout::2                   8398      2.71%     97.24% # Request fanout histogram
system.tol2bus.snoop_fanout::3                   8533      2.75%    100.00% # Request fanout histogram
system.tol2bus.snoop_fanout::4                      4      0.00%    100.00% # Request fanout histogram
system.tol2bus.snoop_fanout::5                      0      0.00%    100.00% # Request fanout histogram
system.tol2bus.snoop_fanout::6                      0      0.00%    100.00% # Request fanout histogram
system.tol2bus.snoop_fanout::7                      0      0.00%    100.00% # Request fanout histogram
system.tol2bus.snoop_fanout::8                      0      0.00%    100.00% # Request fanout histogram
system.tol2bus.snoop_fanout::overflows              0      0.00%    100.00% # Request fanout histogram
system.tol2bus.snoop_fanout::min_value              0                       # Request fanout histogram
system.tol2bus.snoop_fanout::max_value              4                       # Request fanout histogram
system.tol2bus.snoop_fanout::total             309815                       # Request fanout histogram
system.tol2bus.reqLayer0.occupancy          360230000                       # Layer occupancy (ticks)
system.tol2bus.reqLayer0.utilization              4.1                       # Layer utilization (%)
system.tol2bus.snoopLayer0.occupancy            30988                       # Layer occupancy (ticks)
system.tol2bus.snoopLayer0.utilization            0.0                       # Layer utilization (%)
system.tol2bus.respLayer0.occupancy          38347936                       # Layer occupancy (ticks)
system.tol2bus.respLayer0.utilization             0.4                       # Layer utilization (%)
system.tol2bus.respLayer1.occupancy          59197903                       # Layer occupancy (ticks)
system.tol2bus.respLayer1.utilization             0.7                       # Layer utilization (%)
system.tol2bus.respLayer2.occupancy           9089951                       # Layer occupancy (ticks)
system.tol2bus.respLayer2.utilization             0.1                       # Layer utilization (%)
system.tol2bus.respLayer3.occupancy           9381420                       # Layer occupancy (ticks)
system.tol2bus.respLayer3.utilization             0.1                       # Layer utilization (%)
system.tol2bus.respLayer4.occupancy          58425391                       # Layer occupancy (ticks)
system.tol2bus.respLayer4.utilization             0.7                       # Layer utilization (%)
system.tol2bus.respLayer5.occupancy          30747919                       # Layer occupancy (ticks)
system.tol2bus.respLayer5.utilization             0.4                       # Layer utilization (%)
system.tol2bus.respLayer6.occupancy          29737428                       # Layer occupancy (ticks)
system.tol2bus.respLayer6.utilization             0.3                       # Layer utilization (%)
system.tol2bus.respLayer7.occupancy          17670900                       # Layer occupancy (ticks)
system.tol2bus.respLayer7.utilization             0.2                       # Layer utilization (%)
system.tsunami.backdoor.pwrStateResidencyTicks::UNDEFINED   8726285000                       # Cumulative time (in ticks) in various power states
system.tsunami.cchip.pwrStateResidencyTicks::UNDEFINED   8726285000                       # Cumulative time (in ticks) in various power states
system.tsunami.pchip.pwrStateResidencyTicks::UNDEFINED   8726285000                       # Cumulative time (in ticks) in various power states
system.tsunami.ethernet.pwrStateResidencyTicks::UNDEFINED   8726285000                       # Cumulative time (in ticks) in various power states
system.tsunami.ethernet.descDMAReads                0                       # Number of descriptors the device read w/ DMA
system.tsunami.ethernet.descDMAWrites               0                       # Number of descriptors the device wrote w/ DMA
system.tsunami.ethernet.descDmaReadBytes            0                       # number of descriptor bytes read w/ DMA
system.tsunami.ethernet.descDmaWriteBytes            0                       # number of descriptor bytes write w/ DMA
system.tsunami.ethernet.postedSwi                   0                       # number of software interrupts posted to CPU
system.tsunami.ethernet.coalescedSwi              nan                       # average number of Swi's coalesced into each post
system.tsunami.ethernet.totalSwi                    0                       # total number of Swi written to ISR
system.tsunami.ethernet.postedRxIdle                0                       # number of rxIdle interrupts posted to CPU
system.tsunami.ethernet.coalescedRxIdle           nan                       # average number of RxIdle's coalesced into each post
system.tsunami.ethernet.totalRxIdle                 0                       # total number of RxIdle written to ISR
system.tsunami.ethernet.postedRxOk                  0                       # number of RxOk interrupts posted to CPU
system.tsunami.ethernet.coalescedRxOk             nan                       # average number of RxOk's coalesced into each post
system.tsunami.ethernet.totalRxOk                   0                       # total number of RxOk written to ISR
system.tsunami.ethernet.postedRxDesc                0                       # number of RxDesc interrupts posted to CPU
system.tsunami.ethernet.coalescedRxDesc           nan                       # average number of RxDesc's coalesced into each post
system.tsunami.ethernet.totalRxDesc                 0                       # total number of RxDesc written to ISR
system.tsunami.ethernet.postedTxOk                  0                       # number of TxOk interrupts posted to CPU
system.tsunami.ethernet.coalescedTxOk             nan                       # average number of TxOk's coalesced into each post
system.tsunami.ethernet.totalTxOk                   0                       # total number of TxOk written to ISR
system.tsunami.ethernet.postedTxIdle                0                       # number of TxIdle interrupts posted to CPU
system.tsunami.ethernet.coalescedTxIdle           nan                       # average number of TxIdle's coalesced into each post
system.tsunami.ethernet.totalTxIdle                 0                       # total number of TxIdle written to ISR
system.tsunami.ethernet.postedTxDesc                0                       # number of TxDesc interrupts posted to CPU
system.tsunami.ethernet.coalescedTxDesc           nan                       # average number of TxDesc's coalesced into each post
system.tsunami.ethernet.totalTxDesc                 0                       # total number of TxDesc written to ISR
system.tsunami.ethernet.postedRxOrn                 0                       # number of RxOrn posted to CPU
system.tsunami.ethernet.coalescedRxOrn            nan                       # average number of RxOrn's coalesced into each post
system.tsunami.ethernet.totalRxOrn                  0                       # total number of RxOrn written to ISR
system.tsunami.ethernet.coalescedTotal            nan                       # average number of interrupts coalesced into each post
system.tsunami.ethernet.postedInterrupts            0                       # number of posts to CPU
system.tsunami.ethernet.droppedPackets              0                       # number of packets dropped
system.tsunami.fake_OROM.pwrStateResidencyTicks::UNDEFINED   8726285000                       # Cumulative time (in ticks) in various power states
system.tsunami.fake_ata0.pwrStateResidencyTicks::UNDEFINED   8726285000                       # Cumulative time (in ticks) in various power states
system.tsunami.fake_ata1.pwrStateResidencyTicks::UNDEFINED   8726285000                       # Cumulative time (in ticks) in various power states
system.tsunami.fake_pnp_addr.pwrStateResidencyTicks::UNDEFINED   8726285000                       # Cumulative time (in ticks) in various power states
system.tsunami.fake_pnp_read0.pwrStateResidencyTicks::UNDEFINED   8726285000                       # Cumulative time (in ticks) in various power states
system.tsunami.fake_pnp_read1.pwrStateResidencyTicks::UNDEFINED   8726285000                       # Cumulative time (in ticks) in various power states
system.tsunami.fake_pnp_read2.pwrStateResidencyTicks::UNDEFINED   8726285000                       # Cumulative time (in ticks) in various power states
system.tsunami.fake_pnp_read3.pwrStateResidencyTicks::UNDEFINED   8726285000                       # Cumulative time (in ticks) in various power states
system.tsunami.fake_pnp_read4.pwrStateResidencyTicks::UNDEFINED   8726285000                       # Cumulative time (in ticks) in various power states
system.tsunami.fake_pnp_read5.pwrStateResidencyTicks::UNDEFINED   8726285000                       # Cumulative time (in ticks) in various power states
system.tsunami.fake_pnp_read6.pwrStateResidencyTicks::UNDEFINED   8726285000                       # Cumulative time (in ticks) in various power states
system.tsunami.fake_pnp_read7.pwrStateResidencyTicks::UNDEFINED   8726285000                       # Cumulative time (in ticks) in various power states
system.tsunami.fake_pnp_write.pwrStateResidencyTicks::UNDEFINED   8726285000                       # Cumulative time (in ticks) in various power states
system.tsunami.fake_ppc.pwrStateResidencyTicks::UNDEFINED   8726285000                       # Cumulative time (in ticks) in various power states
system.tsunami.fake_sm_chip.pwrStateResidencyTicks::UNDEFINED   8726285000                       # Cumulative time (in ticks) in various power states
system.tsunami.fake_uart1.pwrStateResidencyTicks::UNDEFINED   8726285000                       # Cumulative time (in ticks) in various power states
system.tsunami.fake_uart2.pwrStateResidencyTicks::UNDEFINED   8726285000                       # Cumulative time (in ticks) in various power states
system.tsunami.fake_uart3.pwrStateResidencyTicks::UNDEFINED   8726285000                       # Cumulative time (in ticks) in various power states
system.tsunami.fake_uart4.pwrStateResidencyTicks::UNDEFINED   8726285000                       # Cumulative time (in ticks) in various power states
system.tsunami.fb.pwrStateResidencyTicks::UNDEFINED   8726285000                       # Cumulative time (in ticks) in various power states
system.tsunami.ide.pwrStateResidencyTicks::UNDEFINED   8726285000                       # Cumulative time (in ticks) in various power states
system.tsunami.io.pwrStateResidencyTicks::UNDEFINED   8726285000                       # Cumulative time (in ticks) in various power states
system.tsunami.uart.pwrStateResidencyTicks::UNDEFINED   8726285000                       # Cumulative time (in ticks) in various power states

---------- End Simulation Statistics   ----------
