
---------- Begin Simulation Statistics ----------
sim_seconds                                  2.460081                       # Number of seconds simulated
sim_ticks                                2460081346500                       # Number of ticks simulated
final_tick                               2460081346500                       # Number of ticks from beginning of simulation (restored from checkpoints and never reset)
sim_freq                                 1000000000000                       # Frequency of simulated ticks
host_inst_rate                                 249526                       # Simulator instruction rate (inst/s)
host_op_rate                                   249526                       # Simulator op (including micro ops) rate (op/s)
host_tick_rate                             5474056331                       # Simulator tick rate (ticks/s)
host_mem_usage                                 750696                       # Number of bytes of host memory used
host_seconds                                   449.41                       # Real time elapsed on the host
sim_insts                                   112138890                       # Number of instructions simulated
sim_ops                                     112138890                       # Number of ops (including micro ops) simulated
system.voltage_domain.voltage                       1                       # Voltage in Volts
system.clk_domain.clock                          1000                       # Clock period in ticks
system.mem_ctrls.pwrStateResidencyTicks::UNDEFINED 2460081346500                       # Cumulative time (in ticks) in various power states
system.mem_ctrls.bytes_read::cpu0.inst         735776                       # Number of bytes read from this memory
system.mem_ctrls.bytes_read::cpu0.data       21559936                       # Number of bytes read from this memory
system.mem_ctrls.bytes_read::cpu1.inst          18944                       # Number of bytes read from this memory
system.mem_ctrls.bytes_read::cpu1.data         330624                       # Number of bytes read from this memory
system.mem_ctrls.bytes_read::cpu2.inst         642976                       # Number of bytes read from this memory
system.mem_ctrls.bytes_read::cpu2.data        3573728                       # Number of bytes read from this memory
system.mem_ctrls.bytes_read::cpu3.inst         240992                       # Number of bytes read from this memory
system.mem_ctrls.bytes_read::cpu3.data        1020384                       # Number of bytes read from this memory
system.mem_ctrls.bytes_read::tsunami.ide         4032                       # Number of bytes read from this memory
system.mem_ctrls.bytes_read::total           28127392                       # Number of bytes read from this memory
system.mem_ctrls.bytes_inst_read::cpu0.inst       735776                       # Number of instructions bytes read from this memory
system.mem_ctrls.bytes_inst_read::cpu1.inst        18944                       # Number of instructions bytes read from this memory
system.mem_ctrls.bytes_inst_read::cpu2.inst       642976                       # Number of instructions bytes read from this memory
system.mem_ctrls.bytes_inst_read::cpu3.inst       240992                       # Number of instructions bytes read from this memory
system.mem_ctrls.bytes_inst_read::total       1638688                       # Number of instructions bytes read from this memory
system.mem_ctrls.bytes_written::writebacks     21483136                       # Number of bytes written to this memory
system.mem_ctrls.bytes_written::total        21483136                       # Number of bytes written to this memory
system.mem_ctrls.num_reads::cpu0.inst           22993                       # Number of read requests responded to by this memory
system.mem_ctrls.num_reads::cpu0.data          673748                       # Number of read requests responded to by this memory
system.mem_ctrls.num_reads::cpu1.inst             592                       # Number of read requests responded to by this memory
system.mem_ctrls.num_reads::cpu1.data           10332                       # Number of read requests responded to by this memory
system.mem_ctrls.num_reads::cpu2.inst           20093                       # Number of read requests responded to by this memory
system.mem_ctrls.num_reads::cpu2.data          111679                       # Number of read requests responded to by this memory
system.mem_ctrls.num_reads::cpu3.inst            7531                       # Number of read requests responded to by this memory
system.mem_ctrls.num_reads::cpu3.data           31887                       # Number of read requests responded to by this memory
system.mem_ctrls.num_reads::tsunami.ide           126                       # Number of read requests responded to by this memory
system.mem_ctrls.num_reads::total              878981                       # Number of read requests responded to by this memory
system.mem_ctrls.num_writes::writebacks        671348                       # Number of write requests responded to by this memory
system.mem_ctrls.num_writes::total             671348                       # Number of write requests responded to by this memory
system.mem_ctrls.bw_read::cpu0.inst            299086                       # Total read bandwidth from this memory (bytes/s)
system.mem_ctrls.bw_read::cpu0.data           8763912                       # Total read bandwidth from this memory (bytes/s)
system.mem_ctrls.bw_read::cpu1.inst              7701                       # Total read bandwidth from this memory (bytes/s)
system.mem_ctrls.bw_read::cpu1.data            134396                       # Total read bandwidth from this memory (bytes/s)
system.mem_ctrls.bw_read::cpu2.inst            261364                       # Total read bandwidth from this memory (bytes/s)
system.mem_ctrls.bw_read::cpu2.data           1452687                       # Total read bandwidth from this memory (bytes/s)
system.mem_ctrls.bw_read::cpu3.inst             97961                       # Total read bandwidth from this memory (bytes/s)
system.mem_ctrls.bw_read::cpu3.data            414777                       # Total read bandwidth from this memory (bytes/s)
system.mem_ctrls.bw_read::tsunami.ide            1639                       # Total read bandwidth from this memory (bytes/s)
system.mem_ctrls.bw_read::total              11433521                       # Total read bandwidth from this memory (bytes/s)
system.mem_ctrls.bw_inst_read::cpu0.inst       299086                       # Instruction read bandwidth from this memory (bytes/s)
system.mem_ctrls.bw_inst_read::cpu1.inst         7701                       # Instruction read bandwidth from this memory (bytes/s)
system.mem_ctrls.bw_inst_read::cpu2.inst       261364                       # Instruction read bandwidth from this memory (bytes/s)
system.mem_ctrls.bw_inst_read::cpu3.inst        97961                       # Instruction read bandwidth from this memory (bytes/s)
system.mem_ctrls.bw_inst_read::total           666111                       # Instruction read bandwidth from this memory (bytes/s)
system.mem_ctrls.bw_write::writebacks         8732693                       # Write bandwidth from this memory (bytes/s)
system.mem_ctrls.bw_write::total              8732693                       # Write bandwidth from this memory (bytes/s)
system.mem_ctrls.bw_total::writebacks         8732693                       # Total bandwidth to/from this memory (bytes/s)
system.mem_ctrls.bw_total::cpu0.inst           299086                       # Total bandwidth to/from this memory (bytes/s)
system.mem_ctrls.bw_total::cpu0.data          8763912                       # Total bandwidth to/from this memory (bytes/s)
system.mem_ctrls.bw_total::cpu1.inst             7701                       # Total bandwidth to/from this memory (bytes/s)
system.mem_ctrls.bw_total::cpu1.data           134396                       # Total bandwidth to/from this memory (bytes/s)
system.mem_ctrls.bw_total::cpu2.inst           261364                       # Total bandwidth to/from this memory (bytes/s)
system.mem_ctrls.bw_total::cpu2.data          1452687                       # Total bandwidth to/from this memory (bytes/s)
system.mem_ctrls.bw_total::cpu3.inst            97961                       # Total bandwidth to/from this memory (bytes/s)
system.mem_ctrls.bw_total::cpu3.data           414777                       # Total bandwidth to/from this memory (bytes/s)
system.mem_ctrls.bw_total::tsunami.ide           1639                       # Total bandwidth to/from this memory (bytes/s)
system.mem_ctrls.bw_total::total             20166214                       # Total bandwidth to/from this memory (bytes/s)
system.mem_ctrls.readReqs                      878981                       # Number of read requests accepted
system.mem_ctrls.writeReqs                     671348                       # Number of write requests accepted
system.mem_ctrls.readBursts                    878981                       # Number of DRAM read bursts, including those serviced by the write queue
system.mem_ctrls.writeBursts                   671348                       # Number of DRAM write bursts, including those merged in the write queue
system.mem_ctrls.bytesReadDRAM               56230336                       # Total number of bytes read from DRAM
system.mem_ctrls.bytesReadWrQ                   24448                       # Total number of bytes read from write queue
system.mem_ctrls.bytesWritten                32105280                       # Total number of bytes written to DRAM
system.mem_ctrls.bytesReadSys                28127392                       # Total read bytes from the system interface side
system.mem_ctrls.bytesWrittenSys             21483136                       # Total written bytes from the system interface side
system.mem_ctrls.servicedByWrQ                    382                       # Number of DRAM read bursts serviced by the write queue
system.mem_ctrls.mergedWrBursts                169675                       # Number of DRAM write bursts merged with an existing one
system.mem_ctrls.neitherReadNorWriteReqs            0                       # Number of requests that are neither read nor write
system.mem_ctrls.perBankRdBursts::0             52070                       # Per bank write bursts
system.mem_ctrls.perBankRdBursts::1             55514                       # Per bank write bursts
system.mem_ctrls.perBankRdBursts::2             53290                       # Per bank write bursts
system.mem_ctrls.perBankRdBursts::3             54906                       # Per bank write bursts
system.mem_ctrls.perBankRdBursts::4             52495                       # Per bank write bursts
system.mem_ctrls.perBankRdBursts::5             56221                       # Per bank write bursts
system.mem_ctrls.perBankRdBursts::6             56850                       # Per bank write bursts
system.mem_ctrls.perBankRdBursts::7             59432                       # Per bank write bursts
system.mem_ctrls.perBankRdBursts::8             53862                       # Per bank write bursts
system.mem_ctrls.perBankRdBursts::9             55775                       # Per bank write bursts
system.mem_ctrls.perBankRdBursts::10            52777                       # Per bank write bursts
system.mem_ctrls.perBankRdBursts::11            57034                       # Per bank write bursts
system.mem_ctrls.perBankRdBursts::12            52566                       # Per bank write bursts
system.mem_ctrls.perBankRdBursts::13            54772                       # Per bank write bursts
system.mem_ctrls.perBankRdBursts::14            53487                       # Per bank write bursts
system.mem_ctrls.perBankRdBursts::15            57548                       # Per bank write bursts
system.mem_ctrls.perBankWrBursts::0             31187                       # Per bank write bursts
system.mem_ctrls.perBankWrBursts::1             32851                       # Per bank write bursts
system.mem_ctrls.perBankWrBursts::2             32227                       # Per bank write bursts
system.mem_ctrls.perBankWrBursts::3             32437                       # Per bank write bursts
system.mem_ctrls.perBankWrBursts::4             29004                       # Per bank write bursts
system.mem_ctrls.perBankWrBursts::5             32349                       # Per bank write bursts
system.mem_ctrls.perBankWrBursts::6             31153                       # Per bank write bursts
system.mem_ctrls.perBankWrBursts::7             33933                       # Per bank write bursts
system.mem_ctrls.perBankWrBursts::8             28295                       # Per bank write bursts
system.mem_ctrls.perBankWrBursts::9             31269                       # Per bank write bursts
system.mem_ctrls.perBankWrBursts::10            29667                       # Per bank write bursts
system.mem_ctrls.perBankWrBursts::11            32194                       # Per bank write bursts
system.mem_ctrls.perBankWrBursts::12            29123                       # Per bank write bursts
system.mem_ctrls.perBankWrBursts::13            31351                       # Per bank write bursts
system.mem_ctrls.perBankWrBursts::14            31296                       # Per bank write bursts
system.mem_ctrls.perBankWrBursts::15            33309                       # Per bank write bursts
system.mem_ctrls.numRdRetry                         0                       # Number of times read queue was full causing retry
system.mem_ctrls.numWrRetry                        61                       # Number of times write queue was full causing retry
system.mem_ctrls.totGap                  2460081185500                       # Total gap between requests
system.mem_ctrls.readPktSize::0                     0                       # Read request sizes (log2)
system.mem_ctrls.readPktSize::1                     0                       # Read request sizes (log2)
system.mem_ctrls.readPktSize::2                     0                       # Read request sizes (log2)
system.mem_ctrls.readPktSize::3                     0                       # Read request sizes (log2)
system.mem_ctrls.readPktSize::4                     0                       # Read request sizes (log2)
system.mem_ctrls.readPktSize::5                878981                       # Read request sizes (log2)
system.mem_ctrls.readPktSize::6                     0                       # Read request sizes (log2)
system.mem_ctrls.writePktSize::0                    0                       # Write request sizes (log2)
system.mem_ctrls.writePktSize::1                    0                       # Write request sizes (log2)
system.mem_ctrls.writePktSize::2                    0                       # Write request sizes (log2)
system.mem_ctrls.writePktSize::3                    0                       # Write request sizes (log2)
system.mem_ctrls.writePktSize::4                    0                       # Write request sizes (log2)
system.mem_ctrls.writePktSize::5               671348                       # Write request sizes (log2)
system.mem_ctrls.writePktSize::6                    0                       # Write request sizes (log2)
system.mem_ctrls.rdQLenPdf::0                  876251                       # What read queue length does an incoming req see
system.mem_ctrls.rdQLenPdf::1                    2102                       # What read queue length does an incoming req see
system.mem_ctrls.rdQLenPdf::2                     123                       # What read queue length does an incoming req see
system.mem_ctrls.rdQLenPdf::3                       8                       # What read queue length does an incoming req see
system.mem_ctrls.rdQLenPdf::4                       7                       # What read queue length does an incoming req see
system.mem_ctrls.rdQLenPdf::5                       9                       # What read queue length does an incoming req see
system.mem_ctrls.rdQLenPdf::6                       9                       # What read queue length does an incoming req see
system.mem_ctrls.rdQLenPdf::7                       8                       # What read queue length does an incoming req see
system.mem_ctrls.rdQLenPdf::8                      21                       # What read queue length does an incoming req see
system.mem_ctrls.rdQLenPdf::9                      23                       # What read queue length does an incoming req see
system.mem_ctrls.rdQLenPdf::10                     10                       # What read queue length does an incoming req see
system.mem_ctrls.rdQLenPdf::11                      6                       # What read queue length does an incoming req see
system.mem_ctrls.rdQLenPdf::12                      5                       # What read queue length does an incoming req see
system.mem_ctrls.rdQLenPdf::13                      3                       # What read queue length does an incoming req see
system.mem_ctrls.rdQLenPdf::14                      2                       # What read queue length does an incoming req see
system.mem_ctrls.rdQLenPdf::15                      2                       # What read queue length does an incoming req see
system.mem_ctrls.rdQLenPdf::16                      2                       # What read queue length does an incoming req see
system.mem_ctrls.rdQLenPdf::17                      2                       # What read queue length does an incoming req see
system.mem_ctrls.rdQLenPdf::18                      2                       # What read queue length does an incoming req see
system.mem_ctrls.rdQLenPdf::19                      2                       # What read queue length does an incoming req see
system.mem_ctrls.rdQLenPdf::20                      2                       # What read queue length does an incoming req see
system.mem_ctrls.rdQLenPdf::21                      0                       # What read queue length does an incoming req see
system.mem_ctrls.rdQLenPdf::22                      0                       # What read queue length does an incoming req see
system.mem_ctrls.rdQLenPdf::23                      0                       # What read queue length does an incoming req see
system.mem_ctrls.rdQLenPdf::24                      0                       # What read queue length does an incoming req see
system.mem_ctrls.rdQLenPdf::25                      0                       # What read queue length does an incoming req see
system.mem_ctrls.rdQLenPdf::26                      0                       # What read queue length does an incoming req see
system.mem_ctrls.rdQLenPdf::27                      0                       # What read queue length does an incoming req see
system.mem_ctrls.rdQLenPdf::28                      0                       # What read queue length does an incoming req see
system.mem_ctrls.rdQLenPdf::29                      0                       # What read queue length does an incoming req see
system.mem_ctrls.rdQLenPdf::30                      0                       # What read queue length does an incoming req see
system.mem_ctrls.rdQLenPdf::31                      0                       # What read queue length does an incoming req see
system.mem_ctrls.wrQLenPdf::0                       1                       # What write queue length does an incoming req see
system.mem_ctrls.wrQLenPdf::1                       1                       # What write queue length does an incoming req see
system.mem_ctrls.wrQLenPdf::2                       1                       # What write queue length does an incoming req see
system.mem_ctrls.wrQLenPdf::3                       1                       # What write queue length does an incoming req see
system.mem_ctrls.wrQLenPdf::4                       1                       # What write queue length does an incoming req see
system.mem_ctrls.wrQLenPdf::5                       1                       # What write queue length does an incoming req see
system.mem_ctrls.wrQLenPdf::6                       1                       # What write queue length does an incoming req see
system.mem_ctrls.wrQLenPdf::7                       1                       # What write queue length does an incoming req see
system.mem_ctrls.wrQLenPdf::8                       1                       # What write queue length does an incoming req see
system.mem_ctrls.wrQLenPdf::9                       1                       # What write queue length does an incoming req see
system.mem_ctrls.wrQLenPdf::10                      1                       # What write queue length does an incoming req see
system.mem_ctrls.wrQLenPdf::11                      1                       # What write queue length does an incoming req see
system.mem_ctrls.wrQLenPdf::12                      1                       # What write queue length does an incoming req see
system.mem_ctrls.wrQLenPdf::13                      1                       # What write queue length does an incoming req see
system.mem_ctrls.wrQLenPdf::14                      1                       # What write queue length does an incoming req see
system.mem_ctrls.wrQLenPdf::15                   6559                       # What write queue length does an incoming req see
system.mem_ctrls.wrQLenPdf::16                   7769                       # What write queue length does an incoming req see
system.mem_ctrls.wrQLenPdf::17                  29948                       # What write queue length does an incoming req see
system.mem_ctrls.wrQLenPdf::18                  29752                       # What write queue length does an incoming req see
system.mem_ctrls.wrQLenPdf::19                  29579                       # What write queue length does an incoming req see
system.mem_ctrls.wrQLenPdf::20                  30061                       # What write queue length does an incoming req see
system.mem_ctrls.wrQLenPdf::21                  30103                       # What write queue length does an incoming req see
system.mem_ctrls.wrQLenPdf::22                  30302                       # What write queue length does an incoming req see
system.mem_ctrls.wrQLenPdf::23                  31531                       # What write queue length does an incoming req see
system.mem_ctrls.wrQLenPdf::24                  30393                       # What write queue length does an incoming req see
system.mem_ctrls.wrQLenPdf::25                  30329                       # What write queue length does an incoming req see
system.mem_ctrls.wrQLenPdf::26                  31217                       # What write queue length does an incoming req see
system.mem_ctrls.wrQLenPdf::27                  30084                       # What write queue length does an incoming req see
system.mem_ctrls.wrQLenPdf::28                  30147                       # What write queue length does an incoming req see
system.mem_ctrls.wrQLenPdf::29                  30021                       # What write queue length does an incoming req see
system.mem_ctrls.wrQLenPdf::30                  29853                       # What write queue length does an incoming req see
system.mem_ctrls.wrQLenPdf::31                  29455                       # What write queue length does an incoming req see
system.mem_ctrls.wrQLenPdf::32                  29365                       # What write queue length does an incoming req see
system.mem_ctrls.wrQLenPdf::33                    337                       # What write queue length does an incoming req see
system.mem_ctrls.wrQLenPdf::34                    376                       # What write queue length does an incoming req see
system.mem_ctrls.wrQLenPdf::35                    259                       # What write queue length does an incoming req see
system.mem_ctrls.wrQLenPdf::36                    255                       # What write queue length does an incoming req see
system.mem_ctrls.wrQLenPdf::37                    244                       # What write queue length does an incoming req see
system.mem_ctrls.wrQLenPdf::38                    218                       # What write queue length does an incoming req see
system.mem_ctrls.wrQLenPdf::39                    223                       # What write queue length does an incoming req see
system.mem_ctrls.wrQLenPdf::40                    227                       # What write queue length does an incoming req see
system.mem_ctrls.wrQLenPdf::41                    224                       # What write queue length does an incoming req see
system.mem_ctrls.wrQLenPdf::42                    214                       # What write queue length does an incoming req see
system.mem_ctrls.wrQLenPdf::43                    213                       # What write queue length does an incoming req see
system.mem_ctrls.wrQLenPdf::44                    191                       # What write queue length does an incoming req see
system.mem_ctrls.wrQLenPdf::45                    168                       # What write queue length does an incoming req see
system.mem_ctrls.wrQLenPdf::46                    141                       # What write queue length does an incoming req see
system.mem_ctrls.wrQLenPdf::47                    144                       # What write queue length does an incoming req see
system.mem_ctrls.wrQLenPdf::48                    150                       # What write queue length does an incoming req see
system.mem_ctrls.wrQLenPdf::49                    117                       # What write queue length does an incoming req see
system.mem_ctrls.wrQLenPdf::50                    133                       # What write queue length does an incoming req see
system.mem_ctrls.wrQLenPdf::51                    124                       # What write queue length does an incoming req see
system.mem_ctrls.wrQLenPdf::52                    138                       # What write queue length does an incoming req see
system.mem_ctrls.wrQLenPdf::53                    115                       # What write queue length does an incoming req see
system.mem_ctrls.wrQLenPdf::54                    100                       # What write queue length does an incoming req see
system.mem_ctrls.wrQLenPdf::55                     87                       # What write queue length does an incoming req see
system.mem_ctrls.wrQLenPdf::56                     79                       # What write queue length does an incoming req see
system.mem_ctrls.wrQLenPdf::57                     77                       # What write queue length does an incoming req see
system.mem_ctrls.wrQLenPdf::58                     88                       # What write queue length does an incoming req see
system.mem_ctrls.wrQLenPdf::59                    173                       # What write queue length does an incoming req see
system.mem_ctrls.wrQLenPdf::60                    148                       # What write queue length does an incoming req see
system.mem_ctrls.wrQLenPdf::61                     88                       # What write queue length does an incoming req see
system.mem_ctrls.wrQLenPdf::62                     73                       # What write queue length does an incoming req see
system.mem_ctrls.wrQLenPdf::63                     66                       # What write queue length does an incoming req see
system.mem_ctrls.bytesPerActivate::samples       258701                       # Bytes accessed per row activation
system.mem_ctrls.bytesPerActivate::mean    341.457111                       # Bytes accessed per row activation
system.mem_ctrls.bytesPerActivate::gmean   189.294763                       # Bytes accessed per row activation
system.mem_ctrls.bytesPerActivate::stdev   365.447847                       # Bytes accessed per row activation
system.mem_ctrls.bytesPerActivate::0-127       100211     38.74%     38.74% # Bytes accessed per row activation
system.mem_ctrls.bytesPerActivate::128-255        57842     22.36%     61.09% # Bytes accessed per row activation
system.mem_ctrls.bytesPerActivate::256-383        19797      7.65%     68.75% # Bytes accessed per row activation
system.mem_ctrls.bytesPerActivate::384-511        11693      4.52%     73.27% # Bytes accessed per row activation
system.mem_ctrls.bytesPerActivate::512-639         7503      2.90%     76.17% # Bytes accessed per row activation
system.mem_ctrls.bytesPerActivate::640-767         7036      2.72%     78.89% # Bytes accessed per row activation
system.mem_ctrls.bytesPerActivate::768-895         5758      2.23%     81.11% # Bytes accessed per row activation
system.mem_ctrls.bytesPerActivate::896-1023         5175      2.00%     83.11% # Bytes accessed per row activation
system.mem_ctrls.bytesPerActivate::1024-1151        43686     16.89%    100.00% # Bytes accessed per row activation
system.mem_ctrls.bytesPerActivate::total       258701                       # Bytes accessed per row activation
system.mem_ctrls.rdPerTurnAround::samples        29127                       # Reads before turning the bus around for writes
system.mem_ctrls.rdPerTurnAround::mean      30.163285                       # Reads before turning the bus around for writes
system.mem_ctrls.rdPerTurnAround::stdev    488.440231                       # Reads before turning the bus around for writes
system.mem_ctrls.rdPerTurnAround::0-2047        29123     99.99%     99.99% # Reads before turning the bus around for writes
system.mem_ctrls.rdPerTurnAround::2048-4095            1      0.00%     99.99% # Reads before turning the bus around for writes
system.mem_ctrls.rdPerTurnAround::20480-22527            1      0.00%     99.99% # Reads before turning the bus around for writes
system.mem_ctrls.rdPerTurnAround::47104-49151            1      0.00%    100.00% # Reads before turning the bus around for writes
system.mem_ctrls.rdPerTurnAround::63488-65535            1      0.00%    100.00% # Reads before turning the bus around for writes
system.mem_ctrls.rdPerTurnAround::total         29127                       # Reads before turning the bus around for writes
system.mem_ctrls.wrPerTurnAround::samples        29127                       # Writes before turning the bus around for reads
system.mem_ctrls.wrPerTurnAround::mean      17.222680                       # Writes before turning the bus around for reads
system.mem_ctrls.wrPerTurnAround::gmean     16.891692                       # Writes before turning the bus around for reads
system.mem_ctrls.wrPerTurnAround::stdev      5.020037                       # Writes before turning the bus around for reads
system.mem_ctrls.wrPerTurnAround::16-17         22504     77.26%     77.26% # Writes before turning the bus around for reads
system.mem_ctrls.wrPerTurnAround::18-19          5418     18.60%     95.86% # Writes before turning the bus around for reads
system.mem_ctrls.wrPerTurnAround::20-21            53      0.18%     96.04% # Writes before turning the bus around for reads
system.mem_ctrls.wrPerTurnAround::22-23            11      0.04%     96.08% # Writes before turning the bus around for reads
system.mem_ctrls.wrPerTurnAround::24-25            18      0.06%     96.14% # Writes before turning the bus around for reads
system.mem_ctrls.wrPerTurnAround::26-27           378      1.30%     97.44% # Writes before turning the bus around for reads
system.mem_ctrls.wrPerTurnAround::28-29            47      0.16%     97.60% # Writes before turning the bus around for reads
system.mem_ctrls.wrPerTurnAround::30-31            11      0.04%     97.64% # Writes before turning the bus around for reads
system.mem_ctrls.wrPerTurnAround::32-33           235      0.81%     98.45% # Writes before turning the bus around for reads
system.mem_ctrls.wrPerTurnAround::34-35            43      0.15%     98.60% # Writes before turning the bus around for reads
system.mem_ctrls.wrPerTurnAround::36-37            49      0.17%     98.76% # Writes before turning the bus around for reads
system.mem_ctrls.wrPerTurnAround::38-39            23      0.08%     98.84% # Writes before turning the bus around for reads
system.mem_ctrls.wrPerTurnAround::40-41           176      0.60%     99.45% # Writes before turning the bus around for reads
system.mem_ctrls.wrPerTurnAround::42-43            13      0.04%     99.49% # Writes before turning the bus around for reads
system.mem_ctrls.wrPerTurnAround::44-45             9      0.03%     99.52% # Writes before turning the bus around for reads
system.mem_ctrls.wrPerTurnAround::46-47             7      0.02%     99.55% # Writes before turning the bus around for reads
system.mem_ctrls.wrPerTurnAround::48-49            14      0.05%     99.59% # Writes before turning the bus around for reads
system.mem_ctrls.wrPerTurnAround::50-51             6      0.02%     99.62% # Writes before turning the bus around for reads
system.mem_ctrls.wrPerTurnAround::52-53             4      0.01%     99.63% # Writes before turning the bus around for reads
system.mem_ctrls.wrPerTurnAround::54-55            11      0.04%     99.67% # Writes before turning the bus around for reads
system.mem_ctrls.wrPerTurnAround::56-57             3      0.01%     99.68% # Writes before turning the bus around for reads
system.mem_ctrls.wrPerTurnAround::58-59             5      0.02%     99.69% # Writes before turning the bus around for reads
system.mem_ctrls.wrPerTurnAround::60-61             3      0.01%     99.70% # Writes before turning the bus around for reads
system.mem_ctrls.wrPerTurnAround::62-63             2      0.01%     99.71% # Writes before turning the bus around for reads
system.mem_ctrls.wrPerTurnAround::64-65             3      0.01%     99.72% # Writes before turning the bus around for reads
system.mem_ctrls.wrPerTurnAround::66-67             7      0.02%     99.75% # Writes before turning the bus around for reads
system.mem_ctrls.wrPerTurnAround::68-69            10      0.03%     99.78% # Writes before turning the bus around for reads
system.mem_ctrls.wrPerTurnAround::70-71             4      0.01%     99.79% # Writes before turning the bus around for reads
system.mem_ctrls.wrPerTurnAround::72-73             1      0.00%     99.80% # Writes before turning the bus around for reads
system.mem_ctrls.wrPerTurnAround::74-75             6      0.02%     99.82% # Writes before turning the bus around for reads
system.mem_ctrls.wrPerTurnAround::76-77             2      0.01%     99.82% # Writes before turning the bus around for reads
system.mem_ctrls.wrPerTurnAround::78-79             8      0.03%     99.85% # Writes before turning the bus around for reads
system.mem_ctrls.wrPerTurnAround::80-81             8      0.03%     99.88% # Writes before turning the bus around for reads
system.mem_ctrls.wrPerTurnAround::82-83             2      0.01%     99.89% # Writes before turning the bus around for reads
system.mem_ctrls.wrPerTurnAround::84-85             1      0.00%     99.89% # Writes before turning the bus around for reads
system.mem_ctrls.wrPerTurnAround::88-89             4      0.01%     99.90% # Writes before turning the bus around for reads
system.mem_ctrls.wrPerTurnAround::90-91             3      0.01%     99.91% # Writes before turning the bus around for reads
system.mem_ctrls.wrPerTurnAround::92-93             8      0.03%     99.94% # Writes before turning the bus around for reads
system.mem_ctrls.wrPerTurnAround::94-95             7      0.02%     99.97% # Writes before turning the bus around for reads
system.mem_ctrls.wrPerTurnAround::96-97             1      0.00%     99.97% # Writes before turning the bus around for reads
system.mem_ctrls.wrPerTurnAround::98-99             2      0.01%     99.98% # Writes before turning the bus around for reads
system.mem_ctrls.wrPerTurnAround::100-101            1      0.00%     99.98% # Writes before turning the bus around for reads
system.mem_ctrls.wrPerTurnAround::102-103            2      0.01%     99.99% # Writes before turning the bus around for reads
system.mem_ctrls.wrPerTurnAround::110-111            2      0.01%     99.99% # Writes before turning the bus around for reads
system.mem_ctrls.wrPerTurnAround::112-113            1      0.00%    100.00% # Writes before turning the bus around for reads
system.mem_ctrls.wrPerTurnAround::122-123            1      0.00%    100.00% # Writes before turning the bus around for reads
system.mem_ctrls.wrPerTurnAround::total         29127                       # Writes before turning the bus around for reads
system.mem_ctrls.totQLat                  15026507526                       # Total ticks spent queuing
system.mem_ctrls.totMemAccLat             31500238776                       # Total ticks spent from burst creation until serviced by the DRAM
system.mem_ctrls.totBusLat                 4392995000                       # Total ticks spent in databus transfers
system.mem_ctrls.avgQLat                     17102.81                       # Average queueing delay per DRAM burst
system.mem_ctrls.avgBusLat                    5000.00                       # Average bus latency per DRAM burst
system.mem_ctrls.avgMemAccLat                35852.81                       # Average memory access latency per DRAM burst
system.mem_ctrls.avgRdBW                        22.86                       # Average DRAM read bandwidth in MiByte/s
system.mem_ctrls.avgWrBW                        13.05                       # Average achieved write bandwidth in MiByte/s
system.mem_ctrls.avgRdBWSys                     11.43                       # Average system read bandwidth in MiByte/s
system.mem_ctrls.avgWrBWSys                      8.73                       # Average system write bandwidth in MiByte/s
system.mem_ctrls.peakBW                      12800.00                       # Theoretical peak bandwidth in MiByte/s
system.mem_ctrls.busUtil                         0.28                       # Data bus utilization in percentage
system.mem_ctrls.busUtilRead                     0.18                       # Data bus utilization in percentage for reads
system.mem_ctrls.busUtilWrite                    0.10                       # Data bus utilization in percentage for writes
system.mem_ctrls.avgRdQLen                       1.02                       # Average read queue length when enqueuing
system.mem_ctrls.avgWrQLen                      24.71                       # Average write queue length when enqueuing
system.mem_ctrls.readRowHits                   769342                       # Number of row buffer hits during reads
system.mem_ctrls.writeRowHits                  352199                       # Number of row buffer hits during writes
system.mem_ctrls.readRowHitRate                 87.56                       # Row buffer hit rate for reads
system.mem_ctrls.writeRowHitRate                70.20                       # Row buffer hit rate for writes
system.mem_ctrls.avgGap                    1586812.34                       # Average gap between requests
system.mem_ctrls.pageHitRate                    81.26                       # Row buffer hit rate, read and write combined
system.mem_ctrls_0.actEnergy                940687860                       # Energy for activate commands per rank (pJ)
system.mem_ctrls_0.preEnergy                499979865                       # Energy for precharge commands per rank (pJ)
system.mem_ctrls_0.readEnergy              3147154920                       # Energy for read commands per rank (pJ)
system.mem_ctrls_0.writeEnergy             1331836020                       # Energy for write commands per rank (pJ)
system.mem_ctrls_0.refreshEnergy         15517816080.000002                       # Energy for refresh commands per rank (pJ)
system.mem_ctrls_0.actBackEnergy          19055283540                       # Energy for active background per rank (pJ)
system.mem_ctrls_0.preBackEnergy            829929120                       # Energy for precharge background per rank (pJ)
system.mem_ctrls_0.actPowerDownEnergy     34900655970                       # Energy for active power-down per rank (pJ)
system.mem_ctrls_0.prePowerDownEnergy     18126168480                       # Energy for precharge power-down per rank (pJ)
system.mem_ctrls_0.selfRefreshEnergy     552374223660                       # Energy for self refresh per rank (pJ)
system.mem_ctrls_0.totalEnergy           646727699985                       # Total energy per rank (pJ)
system.mem_ctrls_0.averagePower            262.888746                       # Core power per rank (mW)
system.mem_ctrls_0.totalIdleTime         2416123029000                       # Total Idle time Per DRAM Rank
system.mem_ctrls_0.memoryStateTime::IDLE   1359926250                       # Time in different power states
system.mem_ctrls_0.memoryStateTime::REF    6588610000                       # Time in different power states
system.mem_ctrls_0.memoryStateTime::SREF 2292383312750                       # Time in different power states
system.mem_ctrls_0.memoryStateTime::PRE_PDN  47203726250                       # Time in different power states
system.mem_ctrls_0.memoryStateTime::ACT   36009656500                       # Time in different power states
system.mem_ctrls_0.memoryStateTime::ACT_PDN  76536114750                       # Time in different power states
system.mem_ctrls_1.actEnergy                906451560                       # Energy for activate commands per rank (pJ)
system.mem_ctrls_1.preEnergy                481790430                       # Energy for precharge commands per rank (pJ)
system.mem_ctrls_1.readEnergy              3126041940                       # Energy for read commands per rank (pJ)
system.mem_ctrls_1.writeEnergy             1286750880                       # Energy for write commands per rank (pJ)
system.mem_ctrls_1.refreshEnergy         15437298240.000002                       # Energy for refresh commands per rank (pJ)
system.mem_ctrls_1.actBackEnergy          19070869050                       # Energy for active background per rank (pJ)
system.mem_ctrls_1.preBackEnergy            808340640                       # Energy for precharge background per rank (pJ)
system.mem_ctrls_1.actPowerDownEnergy     34374758010                       # Energy for active power-down per rank (pJ)
system.mem_ctrls_1.prePowerDownEnergy     18274151040                       # Energy for precharge power-down per rank (pJ)
system.mem_ctrls_1.selfRefreshEnergy     552546141180                       # Energy for self refresh per rank (pJ)
system.mem_ctrls_1.totalEnergy           646317679320                       # Total energy per rank (pJ)
system.mem_ctrls_1.averagePower            262.722076                       # Core power per rank (mW)
system.mem_ctrls_1.totalIdleTime         2416138736491                       # Total Idle time Per DRAM Rank
system.mem_ctrls_1.memoryStateTime::IDLE   1317969250                       # Time in different power states
system.mem_ctrls_1.memoryStateTime::REF    6554478000                       # Time in different power states
system.mem_ctrls_1.memoryStateTime::SREF 2293170738000                       # Time in different power states
system.mem_ctrls_1.memoryStateTime::PRE_PDN  47588942500                       # Time in different power states
system.mem_ctrls_1.memoryStateTime::ACT   36066301009                       # Time in different power states
system.mem_ctrls_1.memoryStateTime::ACT_PDN  75382917741                       # Time in different power states
system.pwrStateResidencyTicks::UNDEFINED 2460081346500                       # Cumulative time (in ticks) in various power states
system.bridge.pwrStateResidencyTicks::UNDEFINED 2460081346500                       # Cumulative time (in ticks) in various power states
system.cpu_voltage_domain.voltage                   1                       # Voltage in Volts
system.cpu_clk_domain.clock                       500                       # Clock period in ticks
system.cpu0.dtb.fetch_hits                          0                       # ITB hits
system.cpu0.dtb.fetch_misses                        0                       # ITB misses
system.cpu0.dtb.fetch_acv                           0                       # ITB acv
system.cpu0.dtb.fetch_accesses                      0                       # ITB accesses
system.cpu0.dtb.read_hits                    11618358                       # DTB read hits
system.cpu0.dtb.read_misses                      2643                       # DTB read misses
system.cpu0.dtb.read_acv                            0                       # DTB read access violations
system.cpu0.dtb.read_accesses                  208897                       # DTB read accesses
system.cpu0.dtb.write_hits                    5706503                       # DTB write hits
system.cpu0.dtb.write_misses                      389                       # DTB write misses
system.cpu0.dtb.write_acv                          34                       # DTB write access violations
system.cpu0.dtb.write_accesses                  91736                       # DTB write accesses
system.cpu0.dtb.data_hits                    17324861                       # DTB hits
system.cpu0.dtb.data_misses                      3032                       # DTB misses
system.cpu0.dtb.data_acv                           34                       # DTB access violations
system.cpu0.dtb.data_accesses                  300633                       # DTB accesses
system.cpu0.itb.fetch_hits                    2389316                       # ITB hits
system.cpu0.itb.fetch_misses                     1106                       # ITB misses
system.cpu0.itb.fetch_acv                           0                       # ITB acv
system.cpu0.itb.fetch_accesses                2390422                       # ITB accesses
system.cpu0.itb.read_hits                           0                       # DTB read hits
system.cpu0.itb.read_misses                         0                       # DTB read misses
system.cpu0.itb.read_acv                            0                       # DTB read access violations
system.cpu0.itb.read_accesses                       0                       # DTB read accesses
system.cpu0.itb.write_hits                          0                       # DTB write hits
system.cpu0.itb.write_misses                        0                       # DTB write misses
system.cpu0.itb.write_acv                           0                       # DTB write access violations
system.cpu0.itb.write_accesses                      0                       # DTB write accesses
system.cpu0.itb.data_hits                           0                       # DTB hits
system.cpu0.itb.data_misses                         0                       # DTB misses
system.cpu0.itb.data_acv                            0                       # DTB access violations
system.cpu0.itb.data_accesses                       0                       # DTB accesses
system.cpu0.numPwrStateTransitions              14090                       # Number of power state transitions
system.cpu0.pwrStateClkGateDist::samples         7045                       # Distribution of time spent in the clock gated state
system.cpu0.pwrStateClkGateDist::mean    321953476.153300                       # Distribution of time spent in the clock gated state
system.cpu0.pwrStateClkGateDist::stdev   450564443.741278                       # Distribution of time spent in the clock gated state
system.cpu0.pwrStateClkGateDist::1000-5e+10         7045    100.00%    100.00% # Distribution of time spent in the clock gated state
system.cpu0.pwrStateClkGateDist::min_value         1500                       # Distribution of time spent in the clock gated state
system.cpu0.pwrStateClkGateDist::max_value   2000000000                       # Distribution of time spent in the clock gated state
system.cpu0.pwrStateClkGateDist::total           7045                       # Distribution of time spent in the clock gated state
system.cpu0.pwrStateResidencyTicks::ON   191919107000                       # Cumulative time (in ticks) in various power states
system.cpu0.pwrStateResidencyTicks::CLK_GATED 2268162239500                       # Cumulative time (in ticks) in various power states
system.cpu0.numCycles                      4920162693                       # number of cpu cycles simulated
system.cpu0.numWorkItemsStarted                     0                       # number of work items this cpu started
system.cpu0.numWorkItemsCompleted                   0                       # number of work items this cpu completed
system.cpu0.kern.inst.arm                           0                       # number of arm instructions executed
system.cpu0.kern.inst.quiesce                    7045                       # number of quiesce instructions executed
system.cpu0.kern.callpal::cserve                    1      0.00%      0.00% # number of callpals executed
system.cpu0.kern.callpal::wripir                 1082      0.84%      0.84% # number of callpals executed
system.cpu0.kern.callpal::wrmces                    1      0.00%      0.84% # number of callpals executed
system.cpu0.kern.callpal::wrfen                     1      0.00%      0.84% # number of callpals executed
system.cpu0.kern.callpal::wrvptptr                  1      0.00%      0.84% # number of callpals executed
system.cpu0.kern.callpal::swpctx                 2061      1.59%      2.43% # number of callpals executed
system.cpu0.kern.callpal::tbi                       9      0.01%      2.44% # number of callpals executed
system.cpu0.kern.callpal::wrent                     7      0.01%      2.44% # number of callpals executed
system.cpu0.kern.callpal::swpipl               117001     90.38%     92.82% # number of callpals executed
system.cpu0.kern.callpal::rdps                   5231      4.04%     96.86% # number of callpals executed
system.cpu0.kern.callpal::wrkgp                     1      0.00%     96.86% # number of callpals executed
system.cpu0.kern.callpal::wrusp                     4      0.00%     96.87% # number of callpals executed
system.cpu0.kern.callpal::rdusp                     4      0.00%     96.87% # number of callpals executed
system.cpu0.kern.callpal::whami                     2      0.00%     96.87% # number of callpals executed
system.cpu0.kern.callpal::rti                    3875      2.99%     99.86% # number of callpals executed
system.cpu0.kern.callpal::callsys                 131      0.10%     99.97% # number of callpals executed
system.cpu0.kern.callpal::imb                      44      0.03%    100.00% # number of callpals executed
system.cpu0.kern.callpal::total                129456                       # number of callpals executed
system.cpu0.kern.inst.hwrei                    136873                       # number of hwrei instructions executed
system.cpu0.kern.mode_switch::kernel             5786                       # number of protection mode switches
system.cpu0.kern.mode_switch::user                471                       # number of protection mode switches
system.cpu0.kern.mode_switch::idle                  0                       # number of protection mode switches
system.cpu0.kern.mode_good::kernel                470                      
system.cpu0.kern.mode_good::user                  471                      
system.cpu0.kern.mode_good::idle                    0                      
system.cpu0.kern.mode_switch_good::kernel     0.081231                       # fraction of useful protection mode switches
system.cpu0.kern.mode_switch_good::user             1                       # fraction of useful protection mode switches
system.cpu0.kern.mode_switch_good::idle           nan                       # fraction of useful protection mode switches
system.cpu0.kern.mode_switch_good::total     0.150392                       # fraction of useful protection mode switches
system.cpu0.kern.mode_ticks::kernel      2457518525000     99.90%     99.90% # number of ticks spent at the given mode
system.cpu0.kern.mode_ticks::user          2561493500      0.10%    100.00% # number of ticks spent at the given mode
system.cpu0.kern.mode_ticks::idle                   0      0.00%    100.00% # number of ticks spent at the given mode
system.cpu0.kern.swap_context                    2062                       # number of times the context was actually changed
system.cpu0.kern.ipl_count::0                   47475     38.25%     38.25% # number of times we switched to this ipl
system.cpu0.kern.ipl_count::21                     11      0.01%     38.26% # number of times we switched to this ipl
system.cpu0.kern.ipl_count::22                   2479      2.00%     40.26% # number of times we switched to this ipl
system.cpu0.kern.ipl_count::30                    753      0.61%     40.86% # number of times we switched to this ipl
system.cpu0.kern.ipl_count::31                  73402     59.14%    100.00% # number of times we switched to this ipl
system.cpu0.kern.ipl_count::total              124120                       # number of times we switched to this ipl
system.cpu0.kern.ipl_good::0                    47302     48.72%     48.72% # number of times we switched to this ipl from a different ipl
system.cpu0.kern.ipl_good::21                      11      0.01%     48.73% # number of times we switched to this ipl from a different ipl
system.cpu0.kern.ipl_good::22                    2479      2.55%     51.28% # number of times we switched to this ipl from a different ipl
system.cpu0.kern.ipl_good::30                     753      0.78%     52.06% # number of times we switched to this ipl from a different ipl
system.cpu0.kern.ipl_good::31                   46549     47.94%    100.00% # number of times we switched to this ipl from a different ipl
system.cpu0.kern.ipl_good::total                97094                       # number of times we switched to this ipl from a different ipl
system.cpu0.kern.ipl_ticks::0            2385780076000     96.98%     96.98% # number of cycles we spent at this ipl
system.cpu0.kern.ipl_ticks::21                9518000      0.00%     96.98% # number of cycles we spent at this ipl
system.cpu0.kern.ipl_ticks::22             1318504000      0.05%     97.03% # number of cycles we spent at this ipl
system.cpu0.kern.ipl_ticks::30              815042500      0.03%     97.07% # number of cycles we spent at this ipl
system.cpu0.kern.ipl_ticks::31            72156880000      2.93%    100.00% # number of cycles we spent at this ipl
system.cpu0.kern.ipl_ticks::total        2460080020500                       # number of cycles we spent at this ipl
system.cpu0.kern.ipl_used::0                 0.996356                       # fraction of swpipl calls that actually changed the ipl
system.cpu0.kern.ipl_used::21                       1                       # fraction of swpipl calls that actually changed the ipl
system.cpu0.kern.ipl_used::22                       1                       # fraction of swpipl calls that actually changed the ipl
system.cpu0.kern.ipl_used::30                       1                       # fraction of swpipl calls that actually changed the ipl
system.cpu0.kern.ipl_used::31                0.634165                       # fraction of swpipl calls that actually changed the ipl
system.cpu0.kern.ipl_used::total             0.782259                       # fraction of swpipl calls that actually changed the ipl
system.cpu0.committedInsts                   68323747                       # Number of instructions committed
system.cpu0.committedOps                     68323747                       # Number of ops (including micro ops) committed
system.cpu0.num_int_alu_accesses             66013674                       # Number of integer alu accesses
system.cpu0.num_fp_alu_accesses                229774                       # Number of float alu accesses
system.cpu0.num_vec_alu_accesses                    0                       # Number of vector alu accesses
system.cpu0.num_func_calls                    2230474                       # number of times a function call or return occured
system.cpu0.num_conditional_control_insts      9089912                       # number of instructions that are conditional controls
system.cpu0.num_int_insts                    66013674                       # number of integer instructions
system.cpu0.num_fp_insts                       229774                       # number of float instructions
system.cpu0.num_vec_insts                           0                       # number of vector instructions
system.cpu0.num_int_register_reads           89679386                       # number of times the integer registers were read
system.cpu0.num_int_register_writes          50289032                       # number of times the integer registers were written
system.cpu0.num_fp_register_reads               77695                       # number of times the floating registers were read
system.cpu0.num_fp_register_writes              79180                       # number of times the floating registers were written
system.cpu0.num_vec_register_reads                  0                       # number of times the vector registers were read
system.cpu0.num_vec_register_writes                 0                       # number of times the vector registers were written
system.cpu0.num_mem_refs                     17349987                       # number of memory refs
system.cpu0.num_load_insts                   11632562                       # Number of load instructions
system.cpu0.num_store_insts                   5717425                       # Number of store instructions
system.cpu0.num_idle_cycles              4536324478.998156                       # Number of idle cycles
system.cpu0.num_busy_cycles              383838214.001844                       # Number of busy cycles
system.cpu0.not_idle_fraction                0.078013                       # Percentage of non-idle cycles
system.cpu0.idle_fraction                    0.921987                       # Percentage of idle cycles
system.cpu0.Branches                         11736682                       # Number of branches fetched
system.cpu0.op_class::No_OpClass              1397325      2.05%      2.05% # Class of executed instruction
system.cpu0.op_class::IntAlu                 48405250     70.84%     72.89% # Class of executed instruction
system.cpu0.op_class::IntMult                  151858      0.22%     73.11% # Class of executed instruction
system.cpu0.op_class::IntDiv                        0      0.00%     73.11% # Class of executed instruction
system.cpu0.op_class::FloatAdd                  93861      0.14%     73.25% # Class of executed instruction
system.cpu0.op_class::FloatCmp                      0      0.00%     73.25% # Class of executed instruction
system.cpu0.op_class::FloatCvt                      0      0.00%     73.25% # Class of executed instruction
system.cpu0.op_class::FloatMult                     0      0.00%     73.25% # Class of executed instruction
system.cpu0.op_class::FloatMultAcc                  0      0.00%     73.25% # Class of executed instruction
system.cpu0.op_class::FloatDiv                   1738      0.00%     73.25% # Class of executed instruction
system.cpu0.op_class::FloatMisc                     0      0.00%     73.25% # Class of executed instruction
system.cpu0.op_class::FloatSqrt                     0      0.00%     73.25% # Class of executed instruction
system.cpu0.op_class::SimdAdd                       0      0.00%     73.25% # Class of executed instruction
system.cpu0.op_class::SimdAddAcc                    0      0.00%     73.25% # Class of executed instruction
system.cpu0.op_class::SimdAlu                       0      0.00%     73.25% # Class of executed instruction
system.cpu0.op_class::SimdCmp                       0      0.00%     73.25% # Class of executed instruction
system.cpu0.op_class::SimdCvt                       0      0.00%     73.25% # Class of executed instruction
system.cpu0.op_class::SimdMisc                      0      0.00%     73.25% # Class of executed instruction
system.cpu0.op_class::SimdMult                      0      0.00%     73.25% # Class of executed instruction
system.cpu0.op_class::SimdMultAcc                   0      0.00%     73.25% # Class of executed instruction
system.cpu0.op_class::SimdShift                     0      0.00%     73.25% # Class of executed instruction
system.cpu0.op_class::SimdShiftAcc                  0      0.00%     73.25% # Class of executed instruction
system.cpu0.op_class::SimdSqrt                      0      0.00%     73.25% # Class of executed instruction
system.cpu0.op_class::SimdFloatAdd                  0      0.00%     73.25% # Class of executed instruction
system.cpu0.op_class::SimdFloatAlu                  0      0.00%     73.25% # Class of executed instruction
system.cpu0.op_class::SimdFloatCmp                  0      0.00%     73.25% # Class of executed instruction
system.cpu0.op_class::SimdFloatCvt                  0      0.00%     73.25% # Class of executed instruction
system.cpu0.op_class::SimdFloatDiv                  0      0.00%     73.25% # Class of executed instruction
system.cpu0.op_class::SimdFloatMisc                 0      0.00%     73.25% # Class of executed instruction
system.cpu0.op_class::SimdFloatMult                 0      0.00%     73.25% # Class of executed instruction
system.cpu0.op_class::SimdFloatMultAcc              0      0.00%     73.25% # Class of executed instruction
system.cpu0.op_class::SimdFloatSqrt                 0      0.00%     73.25% # Class of executed instruction
system.cpu0.op_class::MemRead                11886279     17.40%     90.65% # Class of executed instruction
system.cpu0.op_class::MemWrite                5669162      8.30%     98.94% # Class of executed instruction
system.cpu0.op_class::FloatMemRead              68701      0.10%     99.04% # Class of executed instruction
system.cpu0.op_class::FloatMemWrite             65474      0.10%     99.14% # Class of executed instruction
system.cpu0.op_class::IprAccess                587165      0.86%    100.00% # Class of executed instruction
system.cpu0.op_class::InstPrefetch                  0      0.00%    100.00% # Class of executed instruction
system.cpu0.op_class::total                  68326813                       # Class of executed instruction
system.cpu0.dcache.tags.pwrStateResidencyTicks::UNDEFINED 2460081346500                       # Cumulative time (in ticks) in various power states
system.cpu0.dcache.tags.replacements          2320435                       # number of replacements
system.cpu0.dcache.tags.tagsinuse         1015.811019                       # Cycle average of tags in use
system.cpu0.dcache.tags.total_refs           14947649                       # Total number of references to valid blocks.
system.cpu0.dcache.tags.sampled_refs          2320435                       # Sample count of references to valid blocks.
system.cpu0.dcache.tags.avg_refs             6.441744                       # Average number of references to valid blocks.
system.cpu0.dcache.tags.warmup_cycle        168203500                       # Cycle when the warmup percentage was hit.
system.cpu0.dcache.tags.occ_blocks::cpu0.data  1015.811019                       # Average occupied blocks per requestor
system.cpu0.dcache.tags.occ_percent::cpu0.data     0.992003                       # Average percentage of cache occupancy
system.cpu0.dcache.tags.occ_percent::total     0.992003                       # Average percentage of cache occupancy
system.cpu0.dcache.tags.occ_task_id_blocks::1024         1024                       # Occupied blocks per task id
system.cpu0.dcache.tags.age_task_id_blocks_1024::0          118                       # Occupied blocks per task id
system.cpu0.dcache.tags.age_task_id_blocks_1024::1          784                       # Occupied blocks per task id
system.cpu0.dcache.tags.age_task_id_blocks_1024::2          114                       # Occupied blocks per task id
system.cpu0.dcache.tags.age_task_id_blocks_1024::3            7                       # Occupied blocks per task id
system.cpu0.dcache.tags.age_task_id_blocks_1024::4            1                       # Occupied blocks per task id
system.cpu0.dcache.tags.occ_task_id_percent::1024            1                       # Percentage of cache occupancy per task id
system.cpu0.dcache.tags.tag_accesses        556855562                       # Number of tag accesses
system.cpu0.dcache.tags.data_accesses       556855562                       # Number of data accesses
system.cpu0.dcache.pwrStateResidencyTicks::UNDEFINED 2460081346500                       # Cumulative time (in ticks) in various power states
system.cpu0.dcache.ReadReq_hits::cpu0.data      9621344                       # number of ReadReq hits
system.cpu0.dcache.ReadReq_hits::total        9621344                       # number of ReadReq hits
system.cpu0.dcache.WriteReq_hits::cpu0.data      4881671                       # number of WriteReq hits
system.cpu0.dcache.WriteReq_hits::total       4881671                       # number of WriteReq hits
system.cpu0.dcache.LoadLockedReq_hits::cpu0.data       210862                       # number of LoadLockedReq hits
system.cpu0.dcache.LoadLockedReq_hits::total       210862                       # number of LoadLockedReq hits
system.cpu0.dcache.StoreCondReq_hits::cpu0.data       213932                       # number of StoreCondReq hits
system.cpu0.dcache.StoreCondReq_hits::total       213932                       # number of StoreCondReq hits
system.cpu0.dcache.demand_hits::cpu0.data     14503015                       # number of demand (read+write) hits
system.cpu0.dcache.demand_hits::total        14503015                       # number of demand (read+write) hits
system.cpu0.dcache.overall_hits::cpu0.data     14503015                       # number of overall hits
system.cpu0.dcache.overall_hits::total       14503015                       # number of overall hits
system.cpu0.dcache.ReadReq_misses::cpu0.data      1776990                       # number of ReadReq misses
system.cpu0.dcache.ReadReq_misses::total      1776990                       # number of ReadReq misses
system.cpu0.dcache.WriteReq_misses::cpu0.data       595544                       # number of WriteReq misses
system.cpu0.dcache.WriteReq_misses::total       595544                       # number of WriteReq misses
system.cpu0.dcache.LoadLockedReq_misses::cpu0.data        15505                       # number of LoadLockedReq misses
system.cpu0.dcache.LoadLockedReq_misses::total        15505                       # number of LoadLockedReq misses
system.cpu0.dcache.StoreCondReq_misses::cpu0.data        12119                       # number of StoreCondReq misses
system.cpu0.dcache.StoreCondReq_misses::total        12119                       # number of StoreCondReq misses
system.cpu0.dcache.demand_misses::cpu0.data      2372534                       # number of demand (read+write) misses
system.cpu0.dcache.demand_misses::total       2372534                       # number of demand (read+write) misses
system.cpu0.dcache.overall_misses::cpu0.data      2372534                       # number of overall misses
system.cpu0.dcache.overall_misses::total      2372534                       # number of overall misses
system.cpu0.dcache.ReadReq_miss_latency::cpu0.data  42706722000                       # number of ReadReq miss cycles
system.cpu0.dcache.ReadReq_miss_latency::total  42706722000                       # number of ReadReq miss cycles
system.cpu0.dcache.WriteReq_miss_latency::cpu0.data  37572273000                       # number of WriteReq miss cycles
system.cpu0.dcache.WriteReq_miss_latency::total  37572273000                       # number of WriteReq miss cycles
system.cpu0.dcache.LoadLockedReq_miss_latency::cpu0.data    154797500                       # number of LoadLockedReq miss cycles
system.cpu0.dcache.LoadLockedReq_miss_latency::total    154797500                       # number of LoadLockedReq miss cycles
system.cpu0.dcache.StoreCondReq_miss_latency::cpu0.data     61707500                       # number of StoreCondReq miss cycles
system.cpu0.dcache.StoreCondReq_miss_latency::total     61707500                       # number of StoreCondReq miss cycles
system.cpu0.dcache.demand_miss_latency::cpu0.data  80278995000                       # number of demand (read+write) miss cycles
system.cpu0.dcache.demand_miss_latency::total  80278995000                       # number of demand (read+write) miss cycles
system.cpu0.dcache.overall_miss_latency::cpu0.data  80278995000                       # number of overall miss cycles
system.cpu0.dcache.overall_miss_latency::total  80278995000                       # number of overall miss cycles
system.cpu0.dcache.ReadReq_accesses::cpu0.data     11398334                       # number of ReadReq accesses(hits+misses)
system.cpu0.dcache.ReadReq_accesses::total     11398334                       # number of ReadReq accesses(hits+misses)
system.cpu0.dcache.WriteReq_accesses::cpu0.data      5477215                       # number of WriteReq accesses(hits+misses)
system.cpu0.dcache.WriteReq_accesses::total      5477215                       # number of WriteReq accesses(hits+misses)
system.cpu0.dcache.LoadLockedReq_accesses::cpu0.data       226367                       # number of LoadLockedReq accesses(hits+misses)
system.cpu0.dcache.LoadLockedReq_accesses::total       226367                       # number of LoadLockedReq accesses(hits+misses)
system.cpu0.dcache.StoreCondReq_accesses::cpu0.data       226051                       # number of StoreCondReq accesses(hits+misses)
system.cpu0.dcache.StoreCondReq_accesses::total       226051                       # number of StoreCondReq accesses(hits+misses)
system.cpu0.dcache.demand_accesses::cpu0.data     16875549                       # number of demand (read+write) accesses
system.cpu0.dcache.demand_accesses::total     16875549                       # number of demand (read+write) accesses
system.cpu0.dcache.overall_accesses::cpu0.data     16875549                       # number of overall (read+write) accesses
system.cpu0.dcache.overall_accesses::total     16875549                       # number of overall (read+write) accesses
system.cpu0.dcache.ReadReq_miss_rate::cpu0.data     0.155899                       # miss rate for ReadReq accesses
system.cpu0.dcache.ReadReq_miss_rate::total     0.155899                       # miss rate for ReadReq accesses
system.cpu0.dcache.WriteReq_miss_rate::cpu0.data     0.108731                       # miss rate for WriteReq accesses
system.cpu0.dcache.WriteReq_miss_rate::total     0.108731                       # miss rate for WriteReq accesses
system.cpu0.dcache.LoadLockedReq_miss_rate::cpu0.data     0.068495                       # miss rate for LoadLockedReq accesses
system.cpu0.dcache.LoadLockedReq_miss_rate::total     0.068495                       # miss rate for LoadLockedReq accesses
system.cpu0.dcache.StoreCondReq_miss_rate::cpu0.data     0.053612                       # miss rate for StoreCondReq accesses
system.cpu0.dcache.StoreCondReq_miss_rate::total     0.053612                       # miss rate for StoreCondReq accesses
system.cpu0.dcache.demand_miss_rate::cpu0.data     0.140590                       # miss rate for demand accesses
system.cpu0.dcache.demand_miss_rate::total     0.140590                       # miss rate for demand accesses
system.cpu0.dcache.overall_miss_rate::cpu0.data     0.140590                       # miss rate for overall accesses
system.cpu0.dcache.overall_miss_rate::total     0.140590                       # miss rate for overall accesses
system.cpu0.dcache.ReadReq_avg_miss_latency::cpu0.data 24033.180828                       # average ReadReq miss latency
system.cpu0.dcache.ReadReq_avg_miss_latency::total 24033.180828                       # average ReadReq miss latency
system.cpu0.dcache.WriteReq_avg_miss_latency::cpu0.data 63088.995943                       # average WriteReq miss latency
system.cpu0.dcache.WriteReq_avg_miss_latency::total 63088.995943                       # average WriteReq miss latency
system.cpu0.dcache.LoadLockedReq_avg_miss_latency::cpu0.data  9983.714931                       # average LoadLockedReq miss latency
system.cpu0.dcache.LoadLockedReq_avg_miss_latency::total  9983.714931                       # average LoadLockedReq miss latency
system.cpu0.dcache.StoreCondReq_avg_miss_latency::cpu0.data  5091.798003                       # average StoreCondReq miss latency
system.cpu0.dcache.StoreCondReq_avg_miss_latency::total  5091.798003                       # average StoreCondReq miss latency
system.cpu0.dcache.demand_avg_miss_latency::cpu0.data 33836.815405                       # average overall miss latency
system.cpu0.dcache.demand_avg_miss_latency::total 33836.815405                       # average overall miss latency
system.cpu0.dcache.overall_avg_miss_latency::cpu0.data 33836.815405                       # average overall miss latency
system.cpu0.dcache.overall_avg_miss_latency::total 33836.815405                       # average overall miss latency
system.cpu0.dcache.blocked_cycles::no_mshrs            0                       # number of cycles access was blocked
system.cpu0.dcache.blocked_cycles::no_targets            0                       # number of cycles access was blocked
system.cpu0.dcache.blocked::no_mshrs                0                       # number of cycles access was blocked
system.cpu0.dcache.blocked::no_targets              0                       # number of cycles access was blocked
system.cpu0.dcache.avg_blocked_cycles::no_mshrs          nan                       # average number of cycles each access was blocked
system.cpu0.dcache.avg_blocked_cycles::no_targets          nan                       # average number of cycles each access was blocked
system.cpu0.dcache.writebacks::writebacks      1951364                       # number of writebacks
system.cpu0.dcache.writebacks::total          1951364                       # number of writebacks
system.cpu0.dcache.ReadReq_mshr_misses::cpu0.data      1776990                       # number of ReadReq MSHR misses
system.cpu0.dcache.ReadReq_mshr_misses::total      1776990                       # number of ReadReq MSHR misses
system.cpu0.dcache.WriteReq_mshr_misses::cpu0.data       595544                       # number of WriteReq MSHR misses
system.cpu0.dcache.WriteReq_mshr_misses::total       595544                       # number of WriteReq MSHR misses
system.cpu0.dcache.LoadLockedReq_mshr_misses::cpu0.data        15505                       # number of LoadLockedReq MSHR misses
system.cpu0.dcache.LoadLockedReq_mshr_misses::total        15505                       # number of LoadLockedReq MSHR misses
system.cpu0.dcache.StoreCondReq_mshr_misses::cpu0.data        12119                       # number of StoreCondReq MSHR misses
system.cpu0.dcache.StoreCondReq_mshr_misses::total        12119                       # number of StoreCondReq MSHR misses
system.cpu0.dcache.demand_mshr_misses::cpu0.data      2372534                       # number of demand (read+write) MSHR misses
system.cpu0.dcache.demand_mshr_misses::total      2372534                       # number of demand (read+write) MSHR misses
system.cpu0.dcache.overall_mshr_misses::cpu0.data      2372534                       # number of overall MSHR misses
system.cpu0.dcache.overall_mshr_misses::total      2372534                       # number of overall MSHR misses
system.cpu0.dcache.ReadReq_mshr_uncacheable::cpu0.data         5218                       # number of ReadReq MSHR uncacheable
system.cpu0.dcache.ReadReq_mshr_uncacheable::total         5218                       # number of ReadReq MSHR uncacheable
system.cpu0.dcache.WriteReq_mshr_uncacheable::cpu0.data         9861                       # number of WriteReq MSHR uncacheable
system.cpu0.dcache.WriteReq_mshr_uncacheable::total         9861                       # number of WriteReq MSHR uncacheable
system.cpu0.dcache.overall_mshr_uncacheable_misses::cpu0.data        15079                       # number of overall MSHR uncacheable misses
system.cpu0.dcache.overall_mshr_uncacheable_misses::total        15079                       # number of overall MSHR uncacheable misses
system.cpu0.dcache.ReadReq_mshr_miss_latency::cpu0.data  40929732000                       # number of ReadReq MSHR miss cycles
system.cpu0.dcache.ReadReq_mshr_miss_latency::total  40929732000                       # number of ReadReq MSHR miss cycles
system.cpu0.dcache.WriteReq_mshr_miss_latency::cpu0.data  36976729000                       # number of WriteReq MSHR miss cycles
system.cpu0.dcache.WriteReq_mshr_miss_latency::total  36976729000                       # number of WriteReq MSHR miss cycles
system.cpu0.dcache.LoadLockedReq_mshr_miss_latency::cpu0.data    139292500                       # number of LoadLockedReq MSHR miss cycles
system.cpu0.dcache.LoadLockedReq_mshr_miss_latency::total    139292500                       # number of LoadLockedReq MSHR miss cycles
system.cpu0.dcache.StoreCondReq_mshr_miss_latency::cpu0.data     49588500                       # number of StoreCondReq MSHR miss cycles
system.cpu0.dcache.StoreCondReq_mshr_miss_latency::total     49588500                       # number of StoreCondReq MSHR miss cycles
system.cpu0.dcache.demand_mshr_miss_latency::cpu0.data  77906461000                       # number of demand (read+write) MSHR miss cycles
system.cpu0.dcache.demand_mshr_miss_latency::total  77906461000                       # number of demand (read+write) MSHR miss cycles
system.cpu0.dcache.overall_mshr_miss_latency::cpu0.data  77906461000                       # number of overall MSHR miss cycles
system.cpu0.dcache.overall_mshr_miss_latency::total  77906461000                       # number of overall MSHR miss cycles
system.cpu0.dcache.ReadReq_mshr_uncacheable_latency::cpu0.data   1188699500                       # number of ReadReq MSHR uncacheable cycles
system.cpu0.dcache.ReadReq_mshr_uncacheable_latency::total   1188699500                       # number of ReadReq MSHR uncacheable cycles
system.cpu0.dcache.overall_mshr_uncacheable_latency::cpu0.data   1188699500                       # number of overall MSHR uncacheable cycles
system.cpu0.dcache.overall_mshr_uncacheable_latency::total   1188699500                       # number of overall MSHR uncacheable cycles
system.cpu0.dcache.ReadReq_mshr_miss_rate::cpu0.data     0.155899                       # mshr miss rate for ReadReq accesses
system.cpu0.dcache.ReadReq_mshr_miss_rate::total     0.155899                       # mshr miss rate for ReadReq accesses
system.cpu0.dcache.WriteReq_mshr_miss_rate::cpu0.data     0.108731                       # mshr miss rate for WriteReq accesses
system.cpu0.dcache.WriteReq_mshr_miss_rate::total     0.108731                       # mshr miss rate for WriteReq accesses
system.cpu0.dcache.LoadLockedReq_mshr_miss_rate::cpu0.data     0.068495                       # mshr miss rate for LoadLockedReq accesses
system.cpu0.dcache.LoadLockedReq_mshr_miss_rate::total     0.068495                       # mshr miss rate for LoadLockedReq accesses
system.cpu0.dcache.StoreCondReq_mshr_miss_rate::cpu0.data     0.053612                       # mshr miss rate for StoreCondReq accesses
system.cpu0.dcache.StoreCondReq_mshr_miss_rate::total     0.053612                       # mshr miss rate for StoreCondReq accesses
system.cpu0.dcache.demand_mshr_miss_rate::cpu0.data     0.140590                       # mshr miss rate for demand accesses
system.cpu0.dcache.demand_mshr_miss_rate::total     0.140590                       # mshr miss rate for demand accesses
[...]
system.membus.pkt_size::total                 2121685                       # Cumulative packet size per connected master and slave (bytes)
system.membus.snoops                             2677                       # Total snoops (count)
system.membus.snoopTraffic                        864                       # Total snoop traffic (bytes)
system.membus.snoop_fanout::samples             52821                       # Request fanout histogram
system.membus.snoop_fanout::mean             0.041707                       # Request fanout histogram
system.membus.snoop_fanout::stdev            0.199920                       # Request fanout histogram
system.membus.snoop_fanout::underflows              0      0.00%      0.00% # Request fanout histogram
system.membus.snoop_fanout::0                   50618     95.83%     95.83% # Request fanout histogram
system.membus.snoop_fanout::1                    2203      4.17%    100.00% # Request fanout histogram
system.membus.snoop_fanout::2                       0      0.00%    100.00% # Request fanout histogram
system.membus.snoop_fanout::overflows               0      0.00%    100.00% # Request fanout histogram
system.membus.snoop_fanout::min_value               0                       # Request fanout histogram
system.membus.snoop_fanout::max_value               1                       # Request fanout histogram
system.membus.snoop_fanout::total               52821                       # Request fanout histogram
system.membus.reqLayer0.occupancy             1816500                       # Layer occupancy (ticks)
system.membus.reqLayer0.utilization               0.0                       # Layer utilization (%)
system.membus.reqLayer1.occupancy           175769246                       # Layer occupancy (ticks)
system.membus.reqLayer1.utilization               2.9                       # Layer utilization (%)
system.membus.respLayer1.occupancy            1959873                       # Layer occupancy (ticks)
system.membus.respLayer1.utilization              0.0                       # Layer utilization (%)
system.membus.respLayer2.occupancy           94532500                       # Layer occupancy (ticks)
system.membus.respLayer2.utilization              1.6                       # Layer utilization (%)
system.membus.badaddr_responder.pwrStateResidencyTicks::UNDEFINED   5973118000                       # Cumulative time (in ticks) in various power states
system.tol2bus.snoop_filter.tot_requests       275443                       # Total number of requests made to the snoop filter.
system.tol2bus.snoop_filter.hit_single_requests       128453                       # Number of requests hitting in the snoop filter with a single holder of the requested data.
system.tol2bus.snoop_filter.hit_multi_requests        28608                       # Number of requests hitting in the snoop filter with multiple (>1) holders of the requested data.
system.tol2bus.snoop_filter.tot_snoops           1930                       # Total number of snoops made to the snoop filter.
system.tol2bus.snoop_filter.hit_single_snoops         1716                       # Number of snoops hitting in the snoop filter with a single holder of the requested data.
system.tol2bus.snoop_filter.hit_multi_snoops          214                       # Number of snoops hitting in the snoop filter with multiple (>1) holders of the requested data.
system.tol2bus.pwrStateResidencyTicks::UNDEFINED   5973118000                       # Cumulative time (in ticks) in various power states
system.tol2bus.trans_dist::ReadReq                589                       # Transaction distribution
system.tol2bus.trans_dist::ReadResp            109076                       # Transaction distribution
system.tol2bus.trans_dist::WriteReq               466                       # Transaction distribution
system.tol2bus.trans_dist::WriteResp              466                       # Transaction distribution
system.tol2bus.trans_dist::WritebackDirty        55546                       # Transaction distribution
system.tol2bus.trans_dist::WritebackClean        82018                       # Transaction distribution
system.tol2bus.trans_dist::CleanEvict           25768                       # Transaction distribution
system.tol2bus.trans_dist::UpgradeReq             711                       # Transaction distribution
system.tol2bus.trans_dist::SCUpgradeReq           246                       # Transaction distribution
system.tol2bus.trans_dist::UpgradeResp            957                       # Transaction distribution
system.tol2bus.trans_dist::ReadExReq            29884                       # Transaction distribution
system.tol2bus.trans_dist::ReadExResp           29884                       # Transaction distribution
system.tol2bus.trans_dist::ReadCleanReq         82022                       # Transaction distribution
system.tol2bus.trans_dist::ReadSharedReq        26465                       # Transaction distribution
system.tol2bus.trans_dist::InvalidateReq         2176                       # Transaction distribution
system.tol2bus.trans_dist::InvalidateResp           29                       # Transaction distribution
system.tol2bus.pkt_count_system.cpu0.icache.mem_side::system.l2.cpu_side        69619                       # Packet count per connected master and slave (bytes)
system.tol2bus.pkt_count_system.cpu0.dcache.mem_side::system.l2.cpu_side        87046                       # Packet count per connected master and slave (bytes)
system.tol2bus.pkt_count_system.cpu1.icache.mem_side::system.l2.cpu_side        17923                       # Packet count per connected master and slave (bytes)
system.tol2bus.pkt_count_system.cpu1.dcache.mem_side::system.l2.cpu_side        12085                       # Packet count per connected master and slave (bytes)
system.tol2bus.pkt_count_system.cpu2.icache.mem_side::system.l2.cpu_side       136461                       # Packet count per connected master and slave (bytes)
system.tol2bus.pkt_count_system.cpu2.dcache.mem_side::system.l2.cpu_side        53270                       # Packet count per connected master and slave (bytes)
system.tol2bus.pkt_count_system.cpu3.icache.mem_side::system.l2.cpu_side        22053                       # Packet count per connected master and slave (bytes)
system.tol2bus.pkt_count_system.cpu3.dcache.mem_side::system.l2.cpu_side        13785                       # Packet count per connected master and slave (bytes)
system.tol2bus.pkt_count::total                412242                       # Packet count per connected master and slave (bytes)
system.tol2bus.pkt_size_system.cpu0.icache.mem_side::system.l2.cpu_side      1485152                       # Cumulative packet size per connected master and slave (bytes)
system.tol2bus.pkt_size_system.cpu0.dcache.mem_side::system.l2.cpu_side      1573988                       # Cumulative packet size per connected master and slave (bytes)
system.tol2bus.pkt_size_system.cpu1.icache.mem_side::system.l2.cpu_side       382336                       # Cumulative packet size per connected master and slave (bytes)
system.tol2bus.pkt_size_system.cpu1.dcache.mem_side::system.l2.cpu_side       205308                       # Cumulative packet size per connected master and slave (bytes)
system.tol2bus.pkt_size_system.cpu2.icache.mem_side::system.l2.cpu_side      2911136                       # Cumulative packet size per connected master and slave (bytes)
system.tol2bus.pkt_size_system.cpu2.dcache.mem_side::system.l2.cpu_side       951945                       # Cumulative packet size per connected master and slave (bytes)
system.tol2bus.pkt_size_system.cpu3.icache.mem_side::system.l2.cpu_side       470464                       # Cumulative packet size per connected master and slave (bytes)
system.tol2bus.pkt_size_system.cpu3.dcache.mem_side::system.l2.cpu_side       235500                       # Cumulative packet size per connected master and slave (bytes)
system.tol2bus.pkt_size::total                8215829                       # Cumulative packet size per connected master and slave (bytes)
system.tol2bus.snoops                           34117                       # Total snoops (count)
system.tol2bus.snoopTraffic                    616832                       # Total snoop traffic (bytes)
system.tol2bus.snoop_fanout::samples           169749                       # Request fanout histogram
system.tol2bus.snoop_fanout::mean            0.218982                       # Request fanout histogram
system.tol2bus.snoop_fanout::stdev           0.630902                       # Request fanout histogram
system.tol2bus.snoop_fanout::underflows             0      0.00%      0.00% # Request fanout histogram
system.tol2bus.snoop_fanout::0                 146935     86.56%     86.56% # Request fanout histogram
system.tol2bus.snoop_fanout::1                  13359      7.87%     94.43% # Request fanout histogram
system.tol2bus.snoop_fanout::2                   4558      2.69%     97.12% # Request fanout histogram
system.tol2bus.snoop_fanout::3                   4891      2.88%    100.00% # Request fanout histogram
system.tol2bus.snoop_fanout::4                      6      0.00%    100.00% # Request fanout histogram
system.tol2bus.snoop_fanout::5                      0      0.00%    100.00% # Request fanout histogram
system.tol2bus.snoop_fanout::6                      0      0.00%    100.00% # Request fanout histogram
system.tol2bus.snoop_fanout::7                      0      0.00%    100.00% # Request fanout histogram
system.tol2bus.snoop_fanout::8                      0      0.00%    100.00% # Request fanout histogram
system.tol2bus.snoop_fanout::overflows              0      0.00%    100.00% # Request fanout histogram
system.tol2bus.snoop_fanout::min_value              0                       # Request fanout histogram
system.tol2bus.snoop_fanout::max_value              4                       # Request fanout histogram
system.tol2bus.snoop_fanout::total             169749                       # Request fanout histogram
system.tol2bus.reqLayer0.occupancy          199570498                       # Layer occupancy (ticks)
system.tol2bus.reqLayer0.utilization              3.3                       # Layer utilization (%)
system.tol2bus.snoopLayer0.occupancy            49484                       # Layer occupancy (ticks)
system.tol2bus.snoopLayer0.utilization            0.0                       # Layer utilization (%)
system.tol2bus.respLayer0.occupancy          23224965                       # Layer occupancy (ticks)
system.tol2bus.respLayer0.utilization             0.4                       # Layer utilization (%)
system.tol2bus.respLayer1.occupancy          29728961                       # Layer occupancy (ticks)
system.tol2bus.respLayer1.utilization             0.5                       # Layer utilization (%)
system.tol2bus.respLayer2.occupancy           5987475                       # Layer occupancy (ticks)
system.tol2bus.respLayer2.utilization             0.1                       # Layer utilization (%)
system.tol2bus.respLayer3.occupancy           4375474                       # Layer occupancy (ticks)
system.tol2bus.respLayer3.utilization             0.1                       # Layer utilization (%)
system.tol2bus.respLayer4.occupancy          45508459                       # Layer occupancy (ticks)
system.tol2bus.respLayer4.utilization             0.8                       # Layer utilization (%)
system.tol2bus.respLayer5.occupancy          18544971                       # Layer occupancy (ticks)
system.tol2bus.respLayer5.utilization             0.3                       # Layer utilization (%)
system.tol2bus.respLayer6.occupancy           7355990                       # Layer occupancy (ticks)
system.tol2bus.respLayer6.utilization             0.1                       # Layer utilization (%)
system.tol2bus.respLayer7.occupancy           5054432                       # Layer occupancy (ticks)
system.tol2bus.respLayer7.utilization             0.1                       # Layer utilization (%)
system.tsunami.backdoor.pwrStateResidencyTicks::UNDEFINED   5973118000                       # Cumulative time (in ticks) in various power states
system.tsunami.cchip.pwrStateResidencyTicks::UNDEFINED   5973118000                       # Cumulative time (in ticks) in various power states
system.tsunami.pchip.pwrStateResidencyTicks::UNDEFINED   5973118000                       # Cumulative time (in ticks) in various power states
system.tsunami.ethernet.pwrStateResidencyTicks::UNDEFINED   5973118000                       # Cumulative time (in ticks) in various power states
system.tsunami.ethernet.descDMAReads                0                       # Number of descriptors the device read w/ DMA
system.tsunami.ethernet.descDMAWrites               0                       # Number of descriptors the device wrote w/ DMA
system.tsunami.ethernet.descDmaReadBytes            0                       # number of descriptor bytes read w/ DMA
system.tsunami.ethernet.descDmaWriteBytes            0                       # number of descriptor bytes write w/ DMA
system.tsunami.ethernet.postedSwi                   0                       # number of software interrupts posted to CPU
system.tsunami.ethernet.coalescedSwi              nan                       # average number of Swi's coalesced into each post
system.tsunami.ethernet.totalSwi                    0                       # total number of Swi written to ISR
system.tsunami.ethernet.postedRxIdle                0                       # number of rxIdle interrupts posted to CPU
system.tsunami.ethernet.coalescedRxIdle           nan                       # average number of RxIdle's coalesced into each post
system.tsunami.ethernet.totalRxIdle                 0                       # total number of RxIdle written to ISR
system.tsunami.ethernet.postedRxOk                  0                       # number of RxOk interrupts posted to CPU
system.tsunami.ethernet.coalescedRxOk             nan                       # average number of RxOk's coalesced into each post
system.tsunami.ethernet.totalRxOk                   0                       # total number of RxOk written to ISR
system.tsunami.ethernet.postedRxDesc                0                       # number of RxDesc interrupts posted to CPU
system.tsunami.ethernet.coalescedRxDesc           nan                       # average number of RxDesc's coalesced into each post
system.tsunami.ethernet.totalRxDesc                 0                       # total number of RxDesc written to ISR
system.tsunami.ethernet.postedTxOk                  0                       # number of TxOk interrupts posted to CPU
system.tsunami.ethernet.coalescedTxOk             nan                       # average number of TxOk's coalesced into each post
system.tsunami.ethernet.totalTxOk                   0                       # total number of TxOk written to ISR
system.tsunami.ethernet.postedTxIdle                0                       # number of TxIdle interrupts posted to CPU
system.tsunami.ethernet.coalescedTxIdle           nan                       # average number of TxIdle's coalesced into each post
system.tsunami.ethernet.totalTxIdle                 0                       # total number of TxIdle written to ISR
system.tsunami.ethernet.postedTxDesc                0                       # number of TxDesc interrupts posted to CPU
system.tsunami.ethernet.coalescedTxDesc           nan                       # average number of TxDesc's coalesced into each post
system.tsunami.ethernet.totalTxDesc                 0                       # total number of TxDesc written to ISR
system.tsunami.ethernet.postedRxOrn                 0                       # number of RxOrn posted to CPU
system.tsunami.ethernet.coalescedRxOrn            nan                       # average number of RxOrn's coalesced into each post
system.tsunami.ethernet.totalRxOrn                  0                       # total number of RxOrn written to ISR
system.tsunami.ethernet.coalescedTotal            nan                       # average number of interrupts coalesced into each post
system.tsunami.ethernet.postedInterrupts            0                       # number of posts to CPU
system.tsunami.ethernet.droppedPackets              0                       # number of packets dropped
system.tsunami.fake_OROM.pwrStateResidencyTicks::UNDEFINED   5973118000                       # Cumulative time (in ticks) in various power states
system.tsunami.fake_ata0.pwrStateResidencyTicks::UNDEFINED   5973118000                       # Cumulative time (in ticks) in various power states
system.tsunami.fake_ata1.pwrStateResidencyTicks::UNDEFINED   5973118000                       # Cumulative time (in ticks) in various power states
system.tsunami.fake_pnp_addr.pwrStateResidencyTicks::UNDEFINED   5973118000                       # Cumulative time (in ticks) in various power states
system.tsunami.fake_pnp_read0.pwrStateResidencyTicks::UNDEFINED   5973118000                       # Cumulative time (in ticks) in various power states
system.tsunami.fake_pnp_read1.pwrStateResidencyTicks::UNDEFINED   5973118000                       # Cumulative time (in ticks) in various power states
system.tsunami.fake_pnp_read2.pwrStateResidencyTicks::UNDEFINED   5973118000                       # Cumulative time (in ticks) in various power states
system.tsunami.fake_pnp_read3.pwrStateResidencyTicks::UNDEFINED   5973118000                       # Cumulative time (in ticks) in various power states
system.tsunami.fake_pnp_read4.pwrStateResidencyTicks::UNDEFINED   5973118000                       # Cumulative time (in ticks) in various power states
system.tsunami.fake_pnp_read5.pwrStateResidencyTicks::UNDEFINED   5973118000                       # Cumulative time (in ticks) in various power states
system.tsunami.fake_pnp_read6.pwrStateResidencyTicks::UNDEFINED   5973118000                       # Cumulative time (in ticks) in various power states
system.tsunami.fake_pnp_read7.pwrStateResidencyTicks::UNDEFINED   5973118000                       # Cumulative time (in ticks) in various power states
system.tsunami.fake_pnp_write.pwrStateResidencyTicks::UNDEFINED   5973118000                       # Cumulative time (in ticks) in various power states
system.tsunami.fake_ppc.pwrStateResidencyTicks::UNDEFINED   5973118000                       # Cumulative time (in ticks) in various power states
system.tsunami.fake_sm_chip.pwrStateResidencyTicks::UNDEFINED   5973118000                       # Cumulative time (in ticks) in various power states
system.tsunami.fake_uart1.pwrStateResidencyTicks::UNDEFINED   5973118000                       # Cumulative time (in ticks) in various power states
system.tsunami.fake_uart2.pwrStateResidencyTicks::UNDEFINED   5973118000                       # Cumulative time (in ticks) in various power states
system.tsunami.fake_uart3.pwrStateResidencyTicks::UNDEFINED   5973118000                       # Cumulative time (in ticks) in various power states
system.tsunami.fake_uart4.pwrStateResidencyTicks::UNDEFINED   5973118000                       # Cumulative time (in ticks) in various power states
system.tsunami.fb.pwrStateResidencyTicks::UNDEFINED   5973118000                       # Cumulative time (in ticks) in various power states
system.tsunami.ide.pwrStateResidencyTicks::UNDEFINED   5973118000                       # Cumulative time (in ticks) in various power states
system.tsunami.io.pwrStateResidencyTicks::UNDEFINED   5973118000                       # Cumulative time (in ticks) in various power states
system.tsunami.uart.pwrStateResidencyTicks::UNDEFINED   5973118000                       # Cumulative time (in ticks) in various power states

---------- End Simulation Statistics   ----------
