
---------- Begin Simulation Statistics ----------
sim_seconds                                  2.674494                       # Number of seconds simulated
sim_ticks                                2674494349500                       # Number of ticks simulated
final_tick                               2674494349500                       # Number of ticks from beginning of simulation (restored from checkpoints and never reset)
sim_freq                                 1000000000000                       # Frequency of simulated ticks
host_inst_rate                                 213364                       # Simulator instruction rate (inst/s)
host_op_rate                                   213364                       # Simulator op (including micro ops) rate (op/s)
host_tick_rate                             5850989388                       # Simulator tick rate (ticks/s)
host_mem_usage                                 732004                       # Number of bytes of host memory used
host_seconds                                   457.10                       # Real time elapsed on the host
sim_insts                                    97529107                       # Number of instructions simulated
sim_ops                                      97529107                       # Number of ops (including micro ops) simulated
system.voltage_domain.voltage                       1                       # Voltage in Volts
system.clk_domain.clock                          1000                       # Clock period in ticks
system.mem_ctrls.pwrStateResidencyTicks::UNDEFINED 2674494349500                       # Cumulative time (in ticks) in various power states
system.mem_ctrls.bytes_read::cpu.inst       125033600                       # Number of bytes read from this memory
system.mem_ctrls.bytes_read::cpu.data       343121664                       # Number of bytes read from this memory
system.mem_ctrls.bytes_read::tsunami.ide         4096                       # Number of bytes read from this memory
system.mem_ctrls.bytes_read::total          468159360                       # Number of bytes read from this memory
system.mem_ctrls.bytes_inst_read::cpu.inst    125033600                       # Number of instructions bytes read from this memory
system.mem_ctrls.bytes_inst_read::total     125033600                       # Number of instructions bytes read from this memory
system.mem_ctrls.bytes_written::writebacks     59321984                       # Number of bytes written to this memory
system.mem_ctrls.bytes_written::total        59321984                       # Number of bytes written to this memory
system.mem_ctrls.num_reads::cpu.inst           976825                       # Number of read requests responded to by this memory
system.mem_ctrls.num_reads::cpu.data          2680638                       # Number of read requests responded to by this memory
system.mem_ctrls.num_reads::tsunami.ide            32                       # Number of read requests responded to by this memory
system.mem_ctrls.num_reads::total             3657495                       # Number of read requests responded to by this memory
system.mem_ctrls.num_writes::writebacks        463453                       # Number of write requests responded to by this memory
system.mem_ctrls.num_writes::total             463453                       # Number of write requests responded to by this memory
system.mem_ctrls.bw_read::cpu.inst           46750370                       # Total read bandwidth from this memory (bytes/s)
system.mem_ctrls.bw_read::cpu.data          128294032                       # Total read bandwidth from this memory (bytes/s)
system.mem_ctrls.bw_read::tsunami.ide            1532                       # Total read bandwidth from this memory (bytes/s)
system.mem_ctrls.bw_read::total             175045933                       # Total read bandwidth from this memory (bytes/s)
system.mem_ctrls.bw_inst_read::cpu.inst      46750370                       # Instruction read bandwidth from this memory (bytes/s)
system.mem_ctrls.bw_inst_read::total         46750370                       # Instruction read bandwidth from this memory (bytes/s)
system.mem_ctrls.bw_write::writebacks        22180635                       # Write bandwidth from this memory (bytes/s)
system.mem_ctrls.bw_write::total             22180635                       # Write bandwidth from this memory (bytes/s)
system.mem_ctrls.bw_total::writebacks        22180635                       # Total bandwidth to/from this memory (bytes/s)
system.mem_ctrls.bw_total::cpu.inst          46750370                       # Total bandwidth to/from this memory (bytes/s)
system.mem_ctrls.bw_total::cpu.data         128294032                       # Total bandwidth to/from this memory (bytes/s)
system.mem_ctrls.bw_total::tsunami.ide           1532                       # Total bandwidth to/from this memory (bytes/s)
system.mem_ctrls.bw_total::total            197226569                       # Total bandwidth to/from this memory (bytes/s)
system.mem_ctrls.readReqs                     3657495                       # Number of read requests accepted
system.mem_ctrls.writeReqs                     463453                       # Number of write requests accepted
system.mem_ctrls.readBursts                   7314990                       # Number of DRAM read bursts, including those serviced by the write queue
system.mem_ctrls.writeBursts                   926906                       # Number of DRAM write bursts, including those merged in the write queue
system.mem_ctrls.bytesReadDRAM              464420864                       # Total number of bytes read from DRAM
system.mem_ctrls.bytesReadWrQ                 3738496                       # Total number of bytes read from write queue
system.mem_ctrls.bytesWritten                58523200                       # Total number of bytes written to DRAM
system.mem_ctrls.bytesReadSys               468159360                       # Total read bytes from the system interface side
system.mem_ctrls.bytesWrittenSys             59321984                       # Total written bytes from the system interface side
system.mem_ctrls.servicedByWrQ                  58414                       # Number of DRAM read bursts serviced by the write queue
system.mem_ctrls.mergedWrBursts                 12451                       # Number of DRAM write bursts merged with an existing one
system.mem_ctrls.neitherReadNorWriteReqs            0                       # Number of requests that are neither read nor write
system.mem_ctrls.perBankRdBursts::0            533367                       # Per bank write bursts
system.mem_ctrls.perBankRdBursts::1            285657                       # Per bank write bursts
system.mem_ctrls.perBankRdBursts::2            505747                       # Per bank write bursts
system.mem_ctrls.perBankRdBursts::3            414236                       # Per bank write bursts
system.mem_ctrls.perBankRdBursts::4            306751                       # Per bank write bursts
system.mem_ctrls.perBankRdBursts::5            339492                       # Per bank write bursts
system.mem_ctrls.perBankRdBursts::6            407236                       # Per bank write bursts
system.mem_ctrls.perBankRdBursts::7            506503                       # Per bank write bursts
system.mem_ctrls.perBankRdBursts::8            461029                       # Per bank write bursts
system.mem_ctrls.perBankRdBursts::9            666186                       # Per bank write bursts
system.mem_ctrls.perBankRdBursts::10           526298                       # Per bank write bursts
system.mem_ctrls.perBankRdBursts::11           570263                       # Per bank write bursts
system.mem_ctrls.perBankRdBursts::12           406907                       # Per bank write bursts
system.mem_ctrls.perBankRdBursts::13           470104                       # Per bank write bursts
system.mem_ctrls.perBankRdBursts::14           443310                       # Per bank write bursts
system.mem_ctrls.perBankRdBursts::15           413490                       # Per bank write bursts
system.mem_ctrls.perBankWrBursts::0             71242                       # Per bank write bursts
system.mem_ctrls.perBankWrBursts::1             65646                       # Per bank write bursts
system.mem_ctrls.perBankWrBursts::2             39967                       # Per bank write bursts
system.mem_ctrls.perBankWrBursts::3             73406                       # Per bank write bursts
system.mem_ctrls.perBankWrBursts::4             32434                       # Per bank write bursts
system.mem_ctrls.perBankWrBursts::5             31951                       # Per bank write bursts
system.mem_ctrls.perBankWrBursts::6             38740                       # Per bank write bursts
system.mem_ctrls.perBankWrBursts::7             54498                       # Per bank write bursts
system.mem_ctrls.perBankWrBursts::8             48044                       # Per bank write bursts
system.mem_ctrls.perBankWrBursts::9             60526                       # Per bank write bursts
system.mem_ctrls.perBankWrBursts::10            51464                       # Per bank write bursts
system.mem_ctrls.perBankWrBursts::11            57299                       # Per bank write bursts
system.mem_ctrls.perBankWrBursts::12            53570                       # Per bank write bursts
system.mem_ctrls.perBankWrBursts::13            83125                       # Per bank write bursts
system.mem_ctrls.perBankWrBursts::14            46888                       # Per bank write bursts
system.mem_ctrls.perBankWrBursts::15           105625                       # Per bank write bursts
system.mem_ctrls.numRdRetry                        12                       # Number of times read queue was full causing retry
system.mem_ctrls.numWrRetry                      5872                       # Number of times write queue was full causing retry
system.mem_ctrls.totGap                  2674494336500                       # Total gap between requests
system.mem_ctrls.readPktSize::0                     0                       # Read request sizes (log2)
system.mem_ctrls.readPktSize::1                     0                       # Read request sizes (log2)
system.mem_ctrls.readPktSize::2                     0                       # Read request sizes (log2)
system.mem_ctrls.readPktSize::3                     0                       # Read request sizes (log2)
system.mem_ctrls.readPktSize::4                     0                       # Read request sizes (log2)
system.mem_ctrls.readPktSize::5                     0                       # Read request sizes (log2)
system.mem_ctrls.readPktSize::6               7314990                       # Read request sizes (log2)
system.mem_ctrls.writePktSize::0                    0                       # Write request sizes (log2)
system.mem_ctrls.writePktSize::1                    0                       # Write request sizes (log2)
system.mem_ctrls.writePktSize::2                    0                       # Write request sizes (log2)
system.mem_ctrls.writePktSize::3                    0                       # Write request sizes (log2)
system.mem_ctrls.writePktSize::4                    0                       # Write request sizes (log2)
system.mem_ctrls.writePktSize::5                    0                       # Write request sizes (log2)
system.mem_ctrls.writePktSize::6               926906                       # Write request sizes (log2)
system.mem_ctrls.rdQLenPdf::0                 3629039                       # What read queue length does an incoming req see
system.mem_ctrls.rdQLenPdf::1                 3627469                       # What read queue length does an incoming req see
system.mem_ctrls.rdQLenPdf::2                       1                       # What read queue length does an incoming req see
system.mem_ctrls.rdQLenPdf::3                       1                       # What read queue length does an incoming req see
system.mem_ctrls.rdQLenPdf::4                       1                       # What read queue length does an incoming req see
system.mem_ctrls.rdQLenPdf::5                       1                       # What read queue length does an incoming req see
system.mem_ctrls.rdQLenPdf::6                       1                       # What read queue length does an incoming req see
system.mem_ctrls.rdQLenPdf::7                       1                       # What read queue length does an incoming req see
system.mem_ctrls.rdQLenPdf::8                       1                       # What read queue length does an incoming req see
system.mem_ctrls.rdQLenPdf::9                       1                       # What read queue length does an incoming req see
system.mem_ctrls.rdQLenPdf::10                      1                       # What read queue length does an incoming req see
system.mem_ctrls.rdQLenPdf::11                      1                       # What read queue length does an incoming req see
system.mem_ctrls.rdQLenPdf::12                      1                       # What read queue length does an incoming req see
system.mem_ctrls.rdQLenPdf::13                      1                       # What read queue length does an incoming req see
system.mem_ctrls.rdQLenPdf::14                      1                       # What read queue length does an incoming req see
system.mem_ctrls.rdQLenPdf::15                      1                       # What read queue length does an incoming req see
system.mem_ctrls.rdQLenPdf::16                      1                       # What read queue length does an incoming req see
system.mem_ctrls.rdQLenPdf::17                      1                       # What read queue length does an incoming req see
system.mem_ctrls.rdQLenPdf::18                      1                       # What read queue length does an incoming req see
system.mem_ctrls.rdQLenPdf::19                      1                       # What read queue length does an incoming req see
system.mem_ctrls.rdQLenPdf::20                      1                       # What read queue length does an incoming req see
system.mem_ctrls.rdQLenPdf::21                      1                       # What read queue length does an incoming req see
system.mem_ctrls.rdQLenPdf::22                      2                       # What read queue length does an incoming req see
system.mem_ctrls.rdQLenPdf::23                      2                       # What read queue length does an incoming req see
system.mem_ctrls.rdQLenPdf::24                      3                       # What read queue length does an incoming req see
system.mem_ctrls.rdQLenPdf::25                      3                       # What read queue length does an incoming req see
system.mem_ctrls.rdQLenPdf::26                      3                       # What read queue length does an incoming req see
system.mem_ctrls.rdQLenPdf::27                      5                       # What read queue length does an incoming req see
system.mem_ctrls.rdQLenPdf::28                      9                       # What read queue length does an incoming req see
system.mem_ctrls.rdQLenPdf::29                      8                       # What read queue length does an incoming req see
system.mem_ctrls.rdQLenPdf::30                      7                       # What read queue length does an incoming req see
system.mem_ctrls.rdQLenPdf::31                      6                       # What read queue length does an incoming req see
system.mem_ctrls.wrQLenPdf::0                       1                       # What write queue length does an incoming req see
system.mem_ctrls.wrQLenPdf::1                       1                       # What write queue length does an incoming req see
system.mem_ctrls.wrQLenPdf::2                       1                       # What write queue length does an incoming req see
system.mem_ctrls.wrQLenPdf::3                       1                       # What write queue length does an incoming req see
system.mem_ctrls.wrQLenPdf::4                       1                       # What write queue length does an incoming req see
system.mem_ctrls.wrQLenPdf::5                       1                       # What write queue length does an incoming req see
system.mem_ctrls.wrQLenPdf::6                       1                       # What write queue length does an incoming req see
system.mem_ctrls.wrQLenPdf::7                       1                       # What write queue length does an incoming req see
system.mem_ctrls.wrQLenPdf::8                       1                       # What write queue length does an incoming req see
system.mem_ctrls.wrQLenPdf::9                       1                       # What write queue length does an incoming req see
system.mem_ctrls.wrQLenPdf::10                      1                       # What write queue length does an incoming req see
system.mem_ctrls.wrQLenPdf::11                      1                       # What write queue length does an incoming req see
system.mem_ctrls.wrQLenPdf::12                      1                       # What write queue length does an incoming req see
system.mem_ctrls.wrQLenPdf::13                      1                       # What write queue length does an incoming req see
system.mem_ctrls.wrQLenPdf::14                      1                       # What write queue length does an incoming req see
system.mem_ctrls.wrQLenPdf::15                  12169                       # What write queue length does an incoming req see
system.mem_ctrls.wrQLenPdf::16                  13222                       # What write queue length does an incoming req see
system.mem_ctrls.wrQLenPdf::17                  44892                       # What write queue length does an incoming req see
system.mem_ctrls.wrQLenPdf::18                  52077                       # What write queue length does an incoming req see
system.mem_ctrls.wrQLenPdf::19                  52625                       # What write queue length does an incoming req see
system.mem_ctrls.wrQLenPdf::20                  52724                       # What write queue length does an incoming req see
system.mem_ctrls.wrQLenPdf::21                  52734                       # What write queue length does an incoming req see
system.mem_ctrls.wrQLenPdf::22                  52740                       # What write queue length does an incoming req see
system.mem_ctrls.wrQLenPdf::23                  52752                       # What write queue length does an incoming req see
system.mem_ctrls.wrQLenPdf::24                  52776                       # What write queue length does an incoming req see
system.mem_ctrls.wrQLenPdf::25                  52849                       # What write queue length does an incoming req see
system.mem_ctrls.wrQLenPdf::26                  53039                       # What write queue length does an incoming req see
system.mem_ctrls.wrQLenPdf::27                  53232                       # What write queue length does an incoming req see
system.mem_ctrls.wrQLenPdf::28                  53316                       # What write queue length does an incoming req see
system.mem_ctrls.wrQLenPdf::29                  53679                       # What write queue length does an incoming req see
system.mem_ctrls.wrQLenPdf::30                  53724                       # What write queue length does an incoming req see
system.mem_ctrls.wrQLenPdf::31                  53562                       # What write queue length does an incoming req see
system.mem_ctrls.wrQLenPdf::32                  53518                       # What write queue length does an incoming req see
system.mem_ctrls.wrQLenPdf::33                   9286                       # What write queue length does an incoming req see
system.mem_ctrls.wrQLenPdf::34                    530                       # What write queue length does an incoming req see
system.mem_ctrls.wrQLenPdf::35                    618                       # What write queue length does an incoming req see
system.mem_ctrls.wrQLenPdf::36                    575                       # What write queue length does an incoming req see
system.mem_ctrls.wrQLenPdf::37                    484                       # What write queue length does an incoming req see
system.mem_ctrls.wrQLenPdf::38                    516                       # What write queue length does an incoming req see
system.mem_ctrls.wrQLenPdf::39                    424                       # What write queue length does an incoming req see
system.mem_ctrls.wrQLenPdf::40                    376                       # What write queue length does an incoming req see
system.mem_ctrls.wrQLenPdf::41                    419                       # What write queue length does an incoming req see
system.mem_ctrls.wrQLenPdf::42                    394                       # What write queue length does an incoming req see
system.mem_ctrls.wrQLenPdf::43                    374                       # What write queue length does an incoming req see
system.mem_ctrls.wrQLenPdf::44                    422                       # What write queue length does an incoming req see
system.mem_ctrls.wrQLenPdf::45                    412                       # What write queue length does an incoming req see
system.mem_ctrls.wrQLenPdf::46                    334                       # What write queue length does an incoming req see
system.mem_ctrls.wrQLenPdf::47                    344                       # What write queue length does an incoming req see
system.mem_ctrls.wrQLenPdf::48                    318                       # What write queue length does an incoming req see
system.mem_ctrls.wrQLenPdf::49                    346                       # What write queue length does an incoming req see
system.mem_ctrls.wrQLenPdf::50                    416                       # What write queue length does an incoming req see
system.mem_ctrls.wrQLenPdf::51                    408                       # What write queue length does an incoming req see
system.mem_ctrls.wrQLenPdf::52                    400                       # What write queue length does an incoming req see
system.mem_ctrls.wrQLenPdf::53                    500                       # What write queue length does an incoming req see
system.mem_ctrls.wrQLenPdf::54                    535                       # What write queue length does an incoming req see
system.mem_ctrls.wrQLenPdf::55                    574                       # What write queue length does an incoming req see
system.mem_ctrls.wrQLenPdf::56                    555                       # What write queue length does an incoming req see
system.mem_ctrls.wrQLenPdf::57                    583                       # What write queue length does an incoming req see
system.mem_ctrls.wrQLenPdf::58                    594                       # What write queue length does an incoming req see
system.mem_ctrls.wrQLenPdf::59                    742                       # What write queue length does an incoming req see
system.mem_ctrls.wrQLenPdf::60                    921                       # What write queue length does an incoming req see
system.mem_ctrls.wrQLenPdf::61                   1380                       # What write queue length does an incoming req see
system.mem_ctrls.wrQLenPdf::62                  13016                       # What write queue length does an incoming req see
system.mem_ctrls.wrQLenPdf::63                  12014                       # What write queue length does an incoming req see
system.mem_ctrls.bytesPerActivate::samples      1319183                       # Bytes accessed per row activation
system.mem_ctrls.bytesPerActivate::mean    396.414520                       # Bytes accessed per row activation
system.mem_ctrls.bytesPerActivate::gmean   279.063930                       # Bytes accessed per row activation
system.mem_ctrls.bytesPerActivate::stdev   340.711696                       # Bytes accessed per row activation
system.mem_ctrls.bytesPerActivate::0-127        19793      1.50%      1.50% # Bytes accessed per row activation
system.mem_ctrls.bytesPerActivate::128-255       544753     41.29%     42.80% # Bytes accessed per row activation
system.mem_ctrls.bytesPerActivate::256-383       258068     19.56%     62.36% # Bytes accessed per row activation
system.mem_ctrls.bytesPerActivate::384-511       105085      7.97%     70.32% # Bytes accessed per row activation
system.mem_ctrls.bytesPerActivate::512-639        56802      4.31%     74.63% # Bytes accessed per row activation
system.mem_ctrls.bytesPerActivate::640-767        42128      3.19%     77.82% # Bytes accessed per row activation
system.mem_ctrls.bytesPerActivate::768-895        32072      2.43%     80.25% # Bytes accessed per row activation
system.mem_ctrls.bytesPerActivate::896-1023        24676      1.87%     82.12% # Bytes accessed per row activation
system.mem_ctrls.bytesPerActivate::1024-1151       235806     17.88%    100.00% # Bytes accessed per row activation
system.mem_ctrls.bytesPerActivate::total      1319183                       # Bytes accessed per row activation
system.mem_ctrls.rdPerTurnAround::samples        55018                       # Reads before turning the bus around for writes
system.mem_ctrls.rdPerTurnAround::mean     131.893962                       # Reads before turning the bus around for writes
system.mem_ctrls.rdPerTurnAround::stdev   4412.501591                       # Reads before turning the bus around for writes
system.mem_ctrls.rdPerTurnAround::0-32767        55017    100.00%    100.00% # Reads before turning the bus around for writes
system.mem_ctrls.rdPerTurnAround::1.01581e+06-1.04858e+06            1      0.00%    100.00% # Reads before turning the bus around for writes
system.mem_ctrls.rdPerTurnAround::total         55018                       # Reads before turning the bus around for writes
system.mem_ctrls.wrPerTurnAround::samples        55018                       # Writes before turning the bus around for reads
system.mem_ctrls.wrPerTurnAround::mean      16.620470                       # Writes before turning the bus around for reads
system.mem_ctrls.wrPerTurnAround::gmean     16.575421                       # Writes before turning the bus around for reads
system.mem_ctrls.wrPerTurnAround::stdev      1.442893                       # Writes before turning the bus around for reads
system.mem_ctrls.wrPerTurnAround::16-19         54005     98.16%     98.16% # Writes before turning the bus around for reads
system.mem_ctrls.wrPerTurnAround::20-23           668      1.21%     99.37% # Writes before turning the bus around for reads
system.mem_ctrls.wrPerTurnAround::24-27           311      0.57%     99.94% # Writes before turning the bus around for reads
system.mem_ctrls.wrPerTurnAround::28-31            19      0.03%     99.97% # Writes before turning the bus around for reads
system.mem_ctrls.wrPerTurnAround::32-35            10      0.02%     99.99% # Writes before turning the bus around for reads
system.mem_ctrls.wrPerTurnAround::36-39             1      0.00%     99.99% # Writes before turning the bus around for reads
system.mem_ctrls.wrPerTurnAround::40-43             1      0.00%     99.99% # Writes before turning the bus around for reads
system.mem_ctrls.wrPerTurnAround::60-63             1      0.00%    100.00% # Writes before turning the bus around for reads
system.mem_ctrls.wrPerTurnAround::120-123            1      0.00%    100.00% # Writes before turning the bus around for reads
system.mem_ctrls.wrPerTurnAround::128-131            1      0.00%    100.00% # Writes before turning the bus around for reads
system.mem_ctrls.wrPerTurnAround::total         55018                       # Writes before turning the bus around for reads
system.mem_ctrls.totQLat                 140413189510                       # Total ticks spent queuing
system.mem_ctrls.totMemAccLat            276473989510                       # Total ticks spent from burst creation until serviced by the DRAM
system.mem_ctrls.totBusLat                36282880000                       # Total ticks spent in databus transfers
system.mem_ctrls.avgQLat                     19349.79                       # Average queueing delay per DRAM burst
system.mem_ctrls.avgBusLat                    5000.00                       # Average bus latency per DRAM burst
system.mem_ctrls.avgMemAccLat                38099.79                       # Average memory access latency per DRAM burst
system.mem_ctrls.avgRdBW                       173.65                       # Average DRAM read bandwidth in MiByte/s
system.mem_ctrls.avgWrBW                        21.88                       # Average achieved write bandwidth in MiByte/s
system.mem_ctrls.avgRdBWSys                    175.05                       # Average system read bandwidth in MiByte/s
system.mem_ctrls.avgWrBWSys                     22.18                       # Average system write bandwidth in MiByte/s
system.mem_ctrls.peakBW                      12800.00                       # Theoretical peak bandwidth in MiByte/s
system.mem_ctrls.busUtil                         1.53                       # Data bus utilization in percentage
system.mem_ctrls.busUtilRead                     1.36                       # Data bus utilization in percentage for reads
system.mem_ctrls.busUtilWrite                    0.17                       # Data bus utilization in percentage for writes
system.mem_ctrls.avgRdQLen                       1.97                       # Average read queue length when enqueuing
system.mem_ctrls.avgWrQLen                      26.62                       # Average write queue length when enqueuing
system.mem_ctrls.readRowHits                  6124675                       # Number of row buffer hits during reads
system.mem_ctrls.writeRowHits                  727139                       # Number of row buffer hits during writes
system.mem_ctrls.readRowHitRate                 84.40                       # Row buffer hit rate for reads
system.mem_ctrls.writeRowHitRate                79.52                       # Row buffer hit rate for writes
system.mem_ctrls.avgGap                     648999.78                       # Average gap between requests
system.mem_ctrls.pageHitRate                    83.85                       # Row buffer hit rate, read and write combined
system.mem_ctrls_0.actEnergy               3621179520                       # Energy for activate commands per rank (pJ)
system.mem_ctrls_0.preEnergy               1924702560                       # Energy for precharge commands per rank (pJ)
system.mem_ctrls_0.readEnergy             23554781460                       # Energy for read commands per rank (pJ)
system.mem_ctrls_0.writeEnergy             2129154480                       # Energy for write commands per rank (pJ)
system.mem_ctrls_0.refreshEnergy         35378063760.000008                       # Energy for refresh commands per rank (pJ)
system.mem_ctrls_0.actBackEnergy          46678174380                       # Energy for active background per rank (pJ)
system.mem_ctrls_0.preBackEnergy           1247399040                       # Energy for precharge background per rank (pJ)
system.mem_ctrls_0.actPowerDownEnergy    133498897440                       # Energy for active power-down per rank (pJ)
system.mem_ctrls_0.prePowerDownEnergy     15054426720                       # Energy for precharge power-down per rank (pJ)
system.mem_ctrls_0.selfRefreshEnergy     537666258900                       # Energy for self refresh per rank (pJ)
system.mem_ctrls_0.totalEnergy           800755644300                       # Total energy per rank (pJ)
system.mem_ctrls_0.averagePower            299.404500                       # Core power per rank (mW)
system.mem_ctrls_0.totalIdleTime         2568865166750                       # Total Idle time Per DRAM Rank
system.mem_ctrls_0.memoryStateTime::IDLE    969502250                       # Time in different power states
system.mem_ctrls_0.memoryStateTime::REF   14974684500                       # Time in different power states
system.mem_ctrls_0.memoryStateTime::SREF 2236910782500                       # Time in different power states
system.mem_ctrls_0.memoryStateTime::PRE_PDN  39202413250                       # Time in different power states
system.mem_ctrls_0.memoryStateTime::ACT   89684996000                       # Time in different power states
system.mem_ctrls_0.memoryStateTime::ACT_PDN 292751971000                       # Time in different power states
system.mem_ctrls_1.actEnergy               5797815660                       # Energy for activate commands per rank (pJ)
system.mem_ctrls_1.preEnergy               3081596925                       # Energy for precharge commands per rank (pJ)
system.mem_ctrls_1.readEnergy             28257171180                       # Energy for read commands per rank (pJ)
system.mem_ctrls_1.writeEnergy             2644144020                       # Energy for write commands per rank (pJ)
system.mem_ctrls_1.refreshEnergy         35210881680.000008                       # Energy for refresh commands per rank (pJ)
system.mem_ctrls_1.actBackEnergy          52192078500                       # Energy for active background per rank (pJ)
system.mem_ctrls_1.preBackEnergy           1260972960                       # Energy for precharge background per rank (pJ)
system.mem_ctrls_1.actPowerDownEnergy    124866802620                       # Energy for active power-down per rank (pJ)
system.mem_ctrls_1.prePowerDownEnergy     14845765920                       # Energy for precharge power-down per rank (pJ)
system.mem_ctrls_1.selfRefreshEnergy     539827482840                       # Energy for self refresh per rank (pJ)
system.mem_ctrls_1.totalEnergy           807988904565                       # Total energy per rank (pJ)
system.mem_ctrls_1.averagePower            302.109034                       # Core power per rank (mW)
system.mem_ctrls_1.totalIdleTime         2556745198000                       # Total Idle time Per DRAM Rank
system.mem_ctrls_1.memoryStateTime::IDLE   1099658750                       # Time in different power states
system.mem_ctrls_1.memoryStateTime::REF   14908642000                       # Time in different power states
system.mem_ctrls_1.memoryStateTime::SREF 2244253351000                       # Time in different power states
system.mem_ctrls_1.memoryStateTime::PRE_PDN  38661103250                       # Time in different power states
system.mem_ctrls_1.memoryStateTime::ACT  101740850750                       # Time in different power states
system.mem_ctrls_1.memoryStateTime::ACT_PDN 273830743750                       # Time in different power states
system.pwrStateResidencyTicks::UNDEFINED 2674494349500                       # Cumulative time (in ticks) in various power states
system.bridge.pwrStateResidencyTicks::UNDEFINED 2674494349500                       # Cumulative time (in ticks) in various power states
system.cpu_voltage_domain.voltage                   1                       # Voltage in Volts
system.cpu_clk_domain.clock                       500                       # Clock period in ticks
system.cpu.dtb.fetch_hits                           0                       # ITB hits
system.cpu.dtb.fetch_misses                         0                       # ITB misses
system.cpu.dtb.fetch_acv                            0                       # ITB acv
system.cpu.dtb.fetch_accesses                       0                       # ITB accesses
system.cpu.dtb.read_hits                     17025536                       # DTB read hits
system.cpu.dtb.read_misses                      12422                       # DTB read misses
system.cpu.dtb.read_acv                            98                       # DTB read access violations
system.cpu.dtb.read_accesses                   816984                       # DTB read accesses
system.cpu.dtb.write_hits                     8903121                       # DTB write hits
system.cpu.dtb.write_misses                      1305                       # DTB write misses
system.cpu.dtb.write_acv                          169                       # DTB write access violations
system.cpu.dtb.write_accesses                  324492                       # DTB write accesses
system.cpu.dtb.data_hits                     25928657                       # DTB hits
system.cpu.dtb.data_misses                      13727                       # DTB misses
system.cpu.dtb.data_acv                           267                       # DTB access violations
system.cpu.dtb.data_accesses                  1141476                       # DTB accesses
system.cpu.itb.fetch_hits                     5693557                       # ITB hits
system.cpu.itb.fetch_misses                      6026                       # ITB misses
system.cpu.itb.fetch_acv                            1                       # ITB acv
system.cpu.itb.fetch_accesses                 5699583                       # ITB accesses
system.cpu.itb.read_hits                            0                       # DTB read hits
system.cpu.itb.read_misses                          0                       # DTB read misses
system.cpu.itb.read_acv                             0                       # DTB read access violations
system.cpu.itb.read_accesses                        0                       # DTB read accesses
system.cpu.itb.write_hits                           0                       # DTB write hits
system.cpu.itb.write_misses                         0                       # DTB write misses
system.cpu.itb.write_acv                            0                       # DTB write access violations
system.cpu.itb.write_accesses                       0                       # DTB write accesses
system.cpu.itb.data_hits                            0                       # DTB hits
system.cpu.itb.data_misses                          0                       # DTB misses
system.cpu.itb.data_acv                             0                       # DTB access violations
system.cpu.itb.data_accesses                        0                       # DTB accesses
system.cpu.numPwrStateTransitions               14130                       # Number of power state transitions
system.cpu.pwrStateClkGateDist::samples          7065                       # Distribution of time spent in the clock gated state
system.cpu.pwrStateClkGateDist::mean     310838191.153574                       # Distribution of time spent in the clock gated state
system.cpu.pwrStateClkGateDist::stdev    451710823.746763                       # Distribution of time spent in the clock gated state
system.cpu.pwrStateClkGateDist::1000-5e+10         7065    100.00%    100.00% # Distribution of time spent in the clock gated state
system.cpu.pwrStateClkGateDist::min_value        95000                       # Distribution of time spent in the clock gated state
system.cpu.pwrStateClkGateDist::max_value   2000000000                       # Distribution of time spent in the clock gated state
system.cpu.pwrStateClkGateDist::total            7065                       # Distribution of time spent in the clock gated state
system.cpu.pwrStateResidencyTicks::ON    478422529000                       # Cumulative time (in ticks) in various power states
system.cpu.pwrStateResidencyTicks::CLK_GATED 2196071820500                       # Cumulative time (in ticks) in various power states
system.cpu.numCycles                       5348988699                       # number of cpu cycles simulated
system.cpu.numWorkItemsStarted                      0                       # number of work items this cpu started
system.cpu.numWorkItemsCompleted                    0                       # number of work items this cpu completed
system.cpu.kern.inst.arm                            0                       # number of arm instructions executed
system.cpu.kern.inst.quiesce                     7065                       # number of quiesce instructions executed
system.cpu.kern.callpal::cserve                     1      0.00%      0.00% # number of callpals executed
system.cpu.kern.callpal::wrmces                     1      0.00%      0.00% # number of callpals executed
system.cpu.kern.callpal::wrfen                      1      0.00%      0.00% # number of callpals executed
system.cpu.kern.callpal::wrvptptr                   1      0.00%      0.00% # number of callpals executed
system.cpu.kern.callpal::swpctx                  4462      2.05%      2.06% # number of callpals executed
system.cpu.kern.callpal::tbi                       65      0.03%      2.09% # number of callpals executed
system.cpu.kern.callpal::wrent                      7      0.00%      2.09% # number of callpals executed
system.cpu.kern.callpal::swpipl                199452     91.79%     93.88% # number of callpals executed
system.cpu.kern.callpal::rdps                    6215      2.86%     96.74% # number of callpals executed
system.cpu.kern.callpal::wrkgp                      1      0.00%     96.74% # number of callpals executed
system.cpu.kern.callpal::wrusp                      8      0.00%     96.74% # number of callpals executed
system.cpu.kern.callpal::rdusp                     10      0.00%     96.75% # number of callpals executed
system.cpu.kern.callpal::whami                      2      0.00%     96.75% # number of callpals executed
system.cpu.kern.callpal::rti                     6268      2.88%     99.63% # number of callpals executed
system.cpu.kern.callpal::callsys                  559      0.26%     99.89% # number of callpals executed
system.cpu.kern.callpal::imb                      235      0.11%    100.00% # number of callpals executed
system.cpu.kern.callpal::total                 217288                       # number of callpals executed
system.cpu.kern.inst.hwrei                     240095                       # number of hwrei instructions executed
system.cpu.kern.mode_switch::kernel              6943                       # number of protection mode switches
system.cpu.kern.mode_switch::user                1967                       # number of protection mode switches
system.cpu.kern.mode_switch::idle                2293                       # number of protection mode switches
system.cpu.kern.mode_good::kernel                2021                      
system.cpu.kern.mode_good::user                  1967                      
system.cpu.kern.mode_good::idle                    54                      
system.cpu.kern.mode_switch_good::kernel     0.291085                       # fraction of useful protection mode switches
system.cpu.kern.mode_switch_good::user              1                       # fraction of useful protection mode switches
system.cpu.kern.mode_switch_good::idle       0.023550                       # fraction of useful protection mode switches
system.cpu.kern.mode_switch_good::total      0.360796                       # fraction of useful protection mode switches
system.cpu.kern.mode_ticks::kernel       384912969500     14.39%     14.39% # number of ticks spent at the given mode
system.cpu.kern.mode_ticks::user          11437001000      0.43%     14.82% # number of ticks spent at the given mode
system.cpu.kern.mode_ticks::idle         2278142105000     85.18%    100.00% # number of ticks spent at the given mode
system.cpu.kern.swap_context                     4463                       # number of times the context was actually changed
system.cpu.kern.ipl_count::0                    83198     39.90%     39.90% # number of times we switched to this ipl
system.cpu.kern.ipl_count::21                     117      0.06%     39.96% # number of times we switched to this ipl
system.cpu.kern.ipl_count::22                    2667      1.28%     41.24% # number of times we switched to this ipl
system.cpu.kern.ipl_count::31                  122523     58.76%    100.00% # number of times we switched to this ipl
system.cpu.kern.ipl_count::total               208505                       # number of times we switched to this ipl
system.cpu.kern.ipl_good::0                     81661     49.16%     49.16% # number of times we switched to this ipl from a different ipl
system.cpu.kern.ipl_good::21                      117      0.07%     49.23% # number of times we switched to this ipl from a different ipl
system.cpu.kern.ipl_good::22                     2667      1.61%     50.84% # number of times we switched to this ipl from a different ipl
system.cpu.kern.ipl_good::31                    81661     49.16%    100.00% # number of times we switched to this ipl from a different ipl
system.cpu.kern.ipl_good::total                166106                       # number of times we switched to this ipl from a different ipl
system.cpu.kern.ipl_ticks::0             2510348553000     93.86%     93.86% # number of cycles we spent at this ipl
system.cpu.kern.ipl_ticks::21               259105000      0.01%     93.87% # number of cycles we spent at this ipl
system.cpu.kern.ipl_ticks::22              1833519500      0.07%     93.94% # number of cycles we spent at this ipl
system.cpu.kern.ipl_ticks::31            162050900000      6.06%    100.00% # number of cycles we spent at this ipl
system.cpu.kern.ipl_ticks::total         2674492077500                       # number of cycles we spent at this ipl
system.cpu.kern.ipl_used::0                  0.981526                       # fraction of swpipl calls that actually changed the ipl
system.cpu.kern.ipl_used::21                        1                       # fraction of swpipl calls that actually changed the ipl
system.cpu.kern.ipl_used::22                        1                       # fraction of swpipl calls that actually changed the ipl
system.cpu.kern.ipl_used::31                 0.666495                       # fraction of swpipl calls that actually changed the ipl
system.cpu.kern.ipl_used::total              0.796652                       # fraction of swpipl calls that actually changed the ipl
system.cpu.committedInsts                    97529107                       # Number of instructions committed
system.cpu.committedOps                      97529107                       # Number of ops (including micro ops) committed
system.cpu.num_int_alu_accesses              94518879                       # Number of integer alu accesses
system.cpu.num_fp_alu_accesses                 423236                       # Number of float alu accesses
system.cpu.num_vec_alu_accesses                     0                       # Number of vector alu accesses
system.cpu.num_func_calls                     2923826                       # number of times a function call or return occured
system.cpu.num_conditional_control_insts     12579471                       # number of instructions that are conditional controls
system.cpu.num_int_insts                     94518879                       # number of integer instructions
system.cpu.num_fp_insts                        423236                       # number of float instructions
system.cpu.num_vec_insts                            0                       # number of vector instructions
system.cpu.num_int_register_reads           129876525                       # number of times the integer registers were read
system.cpu.num_int_register_writes           71831443                       # number of times the integer registers were written
system.cpu.num_fp_register_reads               176267                       # number of times the floating registers were read
system.cpu.num_fp_register_writes              179215                       # number of times the floating registers were written
system.cpu.num_vec_register_reads                   0                       # number of times the vector registers were read
system.cpu.num_vec_register_writes                  0                       # number of times the vector registers were written
system.cpu.num_mem_refs                      25987301                       # number of memory refs
system.cpu.num_load_insts                    17066651                       # Number of load instructions
system.cpu.num_store_insts                    8920650                       # Number of store instructions
system.cpu.num_idle_cycles               4392143640.998358                       # Number of idle cycles
system.cpu.num_busy_cycles               956845058.001642                       # Number of busy cycles
system.cpu.not_idle_fraction                 0.178883                       # Percentage of non-idle cycles
system.cpu.idle_fraction                     0.821117                       # Percentage of idle cycles
system.cpu.Branches                          16121621                       # Number of branches fetched
system.cpu.op_class::No_OpClass               1595431      1.64%      1.64% # Class of executed instruction
system.cpu.op_class::IntAlu                  68025710     69.74%     71.37% # Class of executed instruction
system.cpu.op_class::IntMult                   187332      0.19%     71.57% # Class of executed instruction
system.cpu.op_class::IntDiv                         0      0.00%     71.57% # Class of executed instruction
system.cpu.op_class::FloatAdd                  117330      0.12%     71.69% # Class of executed instruction
system.cpu.op_class::FloatCmp                       0      0.00%     71.69% # Class of executed instruction
system.cpu.op_class::FloatCvt                       0      0.00%     71.69% # Class of executed instruction
system.cpu.op_class::FloatMult                      0      0.00%     71.69% # Class of executed instruction
system.cpu.op_class::FloatMultAcc                   0      0.00%     71.69% # Class of executed instruction
system.cpu.op_class::FloatDiv                    4179      0.00%     71.69% # Class of executed instruction
system.cpu.op_class::FloatMisc                      0      0.00%     71.69% # Class of executed instruction
system.cpu.op_class::FloatSqrt                      0      0.00%     71.69% # Class of executed instruction
system.cpu.op_class::SimdAdd                        0      0.00%     71.69% # Class of executed instruction
system.cpu.op_class::SimdAddAcc                     0      0.00%     71.69% # Class of executed instruction
system.cpu.op_class::SimdAlu                        0      0.00%     71.69% # Class of executed instruction
system.cpu.op_class::SimdCmp                        0      0.00%     71.69% # Class of executed instruction
system.cpu.op_class::SimdCvt                        0      0.00%     71.69% # Class of executed instruction
system.cpu.op_class::SimdMisc                       0      0.00%     71.69% # Class of executed instruction
system.cpu.op_class::SimdMult                       0      0.00%     71.69% # Class of executed instruction
system.cpu.op_class::SimdMultAcc                    0      0.00%     71.69% # Class of executed instruction
system.cpu.op_class::SimdShift                      0      0.00%     71.69% # Class of executed instruction
system.cpu.op_class::SimdShiftAcc                   0      0.00%     71.69% # Class of executed instruction
system.cpu.op_class::SimdSqrt                       0      0.00%     71.69% # Class of executed instruction
system.cpu.op_class::SimdFloatAdd                   0      0.00%     71.69% # Class of executed instruction
system.cpu.op_class::SimdFloatAlu                   0      0.00%     71.69% # Class of executed instruction
system.cpu.op_class::SimdFloatCmp                   0      0.00%     71.69% # Class of executed instruction
system.cpu.op_class::SimdFloatCvt                   0      0.00%     71.69% # Class of executed instruction
system.cpu.op_class::SimdFloatDiv                   0      0.00%     71.69% # Class of executed instruction
system.cpu.op_class::SimdFloatMisc                  0      0.00%     71.69% # Class of executed instruction
system.cpu.op_class::SimdFloatMult                  0      0.00%     71.69% # Class of executed instruction
system.cpu.op_class::SimdFloatMultAcc               0      0.00%     71.69% # Class of executed instruction
system.cpu.op_class::SimdFloatSqrt                  0      0.00%     71.69% # Class of executed instruction
system.cpu.op_class::MemRead                 17370242     17.81%     89.50% # Class of executed instruction
system.cpu.op_class::MemWrite                 8847906      9.07%     98.57% # Class of executed instruction
system.cpu.op_class::FloatMemRead              154431      0.16%     98.73% # Class of executed instruction
system.cpu.op_class::FloatMemWrite             147296      0.15%     98.88% # Class of executed instruction
system.cpu.op_class::IprAccess                1093244      1.12%    100.00% # Class of executed instruction
system.cpu.op_class::InstPrefetch                   0      0.00%    100.00% # Class of executed instruction
system.cpu.op_class::total                   97543101                       # Class of executed instruction
system.cpu.dcache.tags.pwrStateResidencyTicks::UNDEFINED 2674494349500                       # Cumulative time (in ticks) in various power states
system.cpu.dcache.tags.replacements           2816187                       # number of replacements
system.cpu.dcache.tags.tagsinuse           127.996995                       # Cycle average of tags in use
system.cpu.dcache.tags.total_refs            23124923                       # Total number of references to valid blocks.
system.cpu.dcache.tags.sampled_refs           2816187                       # Sample count of references to valid blocks.
system.cpu.dcache.tags.avg_refs              8.211430                       # Average number of references to valid blocks.
system.cpu.dcache.tags.warmup_cycle          79751500                       # Cycle when the warmup percentage was hit.
system.cpu.dcache.tags.occ_blocks::cpu.data   127.996995                       # Average occupied blocks per requestor
system.cpu.dcache.tags.occ_percent::cpu.data     0.999977                       # Average percentage of cache occupancy
system.cpu.dcache.tags.occ_percent::total     0.999977                       # Average percentage of cache occupancy
system.cpu.dcache.tags.occ_task_id_blocks::1024          128                       # Occupied blocks per task id
system.cpu.dcache.tags.age_task_id_blocks_1024::0           30                       # Occupied blocks per task id
system.cpu.dcache.tags.age_task_id_blocks_1024::1           83                       # Occupied blocks per task id
system.cpu.dcache.tags.age_task_id_blocks_1024::2           15                       # Occupied blocks per task id
system.cpu.dcache.tags.occ_task_id_percent::1024            1                       # Percentage of cache occupancy per task id
system.cpu.dcache.tags.tag_accesses         833204027                       # Number of tag accesses
system.cpu.dcache.tags.data_accesses        833204027                       # Number of data accesses
system.cpu.dcache.pwrStateResidencyTicks::UNDEFINED 2674494349500                       # Cumulative time (in ticks) in various power states
system.cpu.dcache.ReadReq_hits::cpu.data     14221828                       # number of ReadReq hits
system.cpu.dcache.ReadReq_hits::total        14221828                       # number of ReadReq hits
system.cpu.dcache.WriteReq_hits::cpu.data      8315748                       # number of WriteReq hits
system.cpu.dcache.WriteReq_hits::total        8315748                       # number of WriteReq hits
system.cpu.dcache.LoadLockedReq_hits::cpu.data       279725                       # number of LoadLockedReq hits
system.cpu.dcache.LoadLockedReq_hits::total       279725                       # number of LoadLockedReq hits
system.cpu.dcache.StoreCondReq_hits::cpu.data       315991                       # number of StoreCondReq hits
system.cpu.dcache.StoreCondReq_hits::total       315991                       # number of StoreCondReq hits
system.cpu.dcache.demand_hits::cpu.data      22537576                       # number of demand (read+write) hits
system.cpu.dcache.demand_hits::total         22537576                       # number of demand (read+write) hits
system.cpu.dcache.overall_hits::cpu.data     22537576                       # number of overall hits
system.cpu.dcache.overall_hits::total        22537576                       # number of overall hits
system.cpu.dcache.ReadReq_misses::cpu.data      2508288                       # number of ReadReq misses
system.cpu.dcache.ReadReq_misses::total       2508288                       # number of ReadReq misses
system.cpu.dcache.WriteReq_misses::cpu.data       270719                       # number of WriteReq misses
system.cpu.dcache.WriteReq_misses::total       270719                       # number of WriteReq misses
system.cpu.dcache.LoadLockedReq_misses::cpu.data        37317                       # number of LoadLockedReq misses
system.cpu.dcache.LoadLockedReq_misses::total        37317                       # number of LoadLockedReq misses
system.cpu.dcache.demand_misses::cpu.data      2779007                       # number of demand (read+write) misses
system.cpu.dcache.demand_misses::total        2779007                       # number of demand (read+write) misses
system.cpu.dcache.overall_misses::cpu.data      2779007                       # number of overall misses
system.cpu.dcache.overall_misses::total       2779007                       # number of overall misses
system.cpu.dcache.ReadReq_miss_latency::cpu.data 223718948000                       # number of ReadReq miss cycles
system.cpu.dcache.ReadReq_miss_latency::total 223718948000                       # number of ReadReq miss cycles
system.cpu.dcache.WriteReq_miss_latency::cpu.data  23553905000                       # number of WriteReq miss cycles
system.cpu.dcache.WriteReq_miss_latency::total  23553905000                       # number of WriteReq miss cycles
system.cpu.dcache.LoadLockedReq_miss_latency::cpu.data   3225820500                       # number of LoadLockedReq miss cycles
system.cpu.dcache.LoadLockedReq_miss_latency::total   3225820500                       # number of LoadLockedReq miss cycles
system.cpu.dcache.demand_miss_latency::cpu.data 247272853000                       # number of demand (read+write) miss cycles
system.cpu.dcache.demand_miss_latency::total 247272853000                       # number of demand (read+write) miss cycles
system.cpu.dcache.overall_miss_latency::cpu.data 247272853000                       # number of overall miss cycles
system.cpu.dcache.overall_miss_latency::total 247272853000                       # number of overall miss cycles
system.cpu.dcache.ReadReq_accesses::cpu.data     16730116                       # number of ReadReq accesses(hits+misses)
system.cpu.dcache.ReadReq_accesses::total     16730116                       # number of ReadReq accesses(hits+misses)
system.cpu.dcache.WriteReq_accesses::cpu.data      8586467                       # number of WriteReq accesses(hits+misses)
system.cpu.dcache.WriteReq_accesses::total      8586467                       # number of WriteReq accesses(hits+misses)
system.cpu.dcache.LoadLockedReq_accesses::cpu.data       317042                       # number of LoadLockedReq accesses(hits+misses)
system.cpu.dcache.LoadLockedReq_accesses::total       317042                       # number of LoadLockedReq accesses(hits+misses)
system.cpu.dcache.StoreCondReq_accesses::cpu.data       315991                       # number of StoreCondReq accesses(hits+misses)
system.cpu.dcache.StoreCondReq_accesses::total       315991                       # number of StoreCondReq accesses(hits+misses)
system.cpu.dcache.demand_accesses::cpu.data     25316583                       # number of demand (read+write) accesses
system.cpu.dcache.demand_accesses::total     25316583                       # number of demand (read+write) accesses
system.cpu.dcache.overall_accesses::cpu.data     25316583                       # number of overall (read+write) accesses
system.cpu.dcache.overall_accesses::total     25316583                       # number of overall (read+write) accesses
system.cpu.dcache.ReadReq_miss_rate::cpu.data     0.149927                       # miss rate for ReadReq accesses
system.cpu.dcache.ReadReq_miss_rate::total     0.149927                       # miss rate for ReadReq accesses
system.cpu.dcache.WriteReq_miss_rate::cpu.data     0.031529                       # miss rate for WriteReq accesses
system.cpu.dcache.WriteReq_miss_rate::total     0.031529                       # miss rate for WriteReq accesses
system.cpu.dcache.LoadLockedReq_miss_rate::cpu.data     0.117704                       # miss rate for LoadLockedReq accesses
system.cpu.dcache.LoadLockedReq_miss_rate::total     0.117704                       # miss rate for LoadLockedReq accesses
system.cpu.dcache.demand_miss_rate::cpu.data     0.109770                       # miss rate for demand accesses
system.cpu.dcache.demand_miss_rate::total     0.109770                       # miss rate for demand accesses
system.cpu.dcache.overall_miss_rate::cpu.data     0.109770                       # miss rate for overall accesses
system.cpu.dcache.overall_miss_rate::total     0.109770                       # miss rate for overall accesses
system.cpu.dcache.ReadReq_avg_miss_latency::cpu.data 89191.890245                       # average ReadReq miss latency
system.cpu.dcache.ReadReq_avg_miss_latency::total 89191.890245                       # average ReadReq miss latency
system.cpu.dcache.WriteReq_avg_miss_latency::cpu.data 87004.994108                       # average WriteReq miss latency
system.cpu.dcache.WriteReq_avg_miss_latency::total 87004.994108                       # average WriteReq miss latency
system.cpu.dcache.LoadLockedReq_avg_miss_latency::cpu.data 86443.725380                       # average LoadLockedReq miss latency
system.cpu.dcache.LoadLockedReq_avg_miss_latency::total 86443.725380                       # average LoadLockedReq miss latency
system.cpu.dcache.demand_avg_miss_latency::cpu.data 88978.852158                       # average overall miss latency
system.cpu.dcache.demand_avg_miss_latency::total 88978.852158                       # average overall miss latency
system.cpu.dcache.overall_avg_miss_latency::cpu.data 88978.852158                       # average overall miss latency
system.cpu.dcache.overall_avg_miss_latency::total 88978.852158                       # average overall miss latency
system.cpu.dcache.blocked_cycles::no_mshrs            0                       # number of cycles access was blocked
system.cpu.dcache.blocked_cycles::no_targets            0                       # number of cycles access was blocked
system.cpu.dcache.blocked::no_mshrs                 0                       # number of cycles access was blocked
system.cpu.dcache.blocked::no_targets               0                       # number of cycles access was blocked
system.cpu.dcache.avg_blocked_cycles::no_mshrs          nan                       # average number of cycles each access was blocked
system.cpu.dcache.avg_blocked_cycles::no_targets          nan                       # average number of cycles each access was blocked
system.cpu.dcache.writebacks::writebacks       515890                       # number of writebacks
system.cpu.dcache.writebacks::total            515890                       # number of writebacks
system.cpu.dcache.ReadReq_mshr_misses::cpu.data      2508288                       # number of ReadReq MSHR misses
system.cpu.dcache.ReadReq_mshr_misses::total      2508288                       # number of ReadReq MSHR misses
system.cpu.dcache.WriteReq_mshr_misses::cpu.data       270719                       # number of WriteReq MSHR misses
system.cpu.dcache.WriteReq_mshr_misses::total       270719                       # number of WriteReq MSHR misses
system.cpu.dcache.LoadLockedReq_mshr_misses::cpu.data        37317                       # number of LoadLockedReq MSHR misses
system.cpu.dcache.LoadLockedReq_mshr_misses::total        37317                       # number of LoadLockedReq MSHR misses
system.cpu.dcache.demand_mshr_misses::cpu.data      2779007                       # number of demand (read+write) MSHR misses
system.cpu.dcache.demand_mshr_misses::total      2779007                       # number of demand (read+write) MSHR misses
system.cpu.dcache.overall_mshr_misses::cpu.data      2779007                       # number of overall MSHR misses
system.cpu.dcache.overall_mshr_misses::total      2779007                       # number of overall MSHR misses
system.cpu.dcache.ReadReq_mshr_uncacheable::cpu.data         6973                       # number of ReadReq MSHR uncacheable
system.cpu.dcache.ReadReq_mshr_uncacheable::total         6973                       # number of ReadReq MSHR uncacheable
system.cpu.dcache.WriteReq_mshr_uncacheable::cpu.data        10445                       # number of WriteReq MSHR uncacheable
system.cpu.dcache.WriteReq_mshr_uncacheable::total        10445                       # number of WriteReq MSHR uncacheable
system.cpu.dcache.overall_mshr_uncacheable_misses::cpu.data        17418                       # number of overall MSHR uncacheable misses
system.cpu.dcache.overall_mshr_uncacheable_misses::total        17418                       # number of overall MSHR uncacheable misses
system.cpu.dcache.ReadReq_mshr_miss_latency::cpu.data 221210660000                       # number of ReadReq MSHR miss cycles
system.cpu.dcache.ReadReq_mshr_miss_latency::total 221210660000                       # number of ReadReq MSHR miss cycles
system.cpu.dcache.WriteReq_mshr_miss_latency::cpu.data  23283186000                       # number of WriteReq MSHR miss cycles
system.cpu.dcache.WriteReq_mshr_miss_latency::total  23283186000                       # number of WriteReq MSHR miss cycles
system.cpu.dcache.LoadLockedReq_mshr_miss_latency::cpu.data   3188503500                       # number of LoadLockedReq MSHR miss cycles
system.cpu.dcache.LoadLockedReq_mshr_miss_latency::total   3188503500                       # number of LoadLockedReq MSHR miss cycles
system.cpu.dcache.demand_mshr_miss_latency::cpu.data 244493846000                       # number of demand (read+write) MSHR miss cycles
system.cpu.dcache.demand_mshr_miss_latency::total 244493846000                       # number of demand (read+write) MSHR miss cycles
system.cpu.dcache.overall_mshr_miss_latency::cpu.data 244493846000                       # number of overall MSHR miss cycles
system.cpu.dcache.overall_mshr_miss_latency::total 244493846000                       # number of overall MSHR miss cycles
system.cpu.dcache.ReadReq_mshr_uncacheable_latency::cpu.data   1561254500                       # number of ReadReq MSHR uncacheable cycles
system.cpu.dcache.ReadReq_mshr_uncacheable_latency::total   1561254500                       # number of ReadReq MSHR uncacheable cycles
system.cpu.dcache.overall_mshr_uncacheable_latency::cpu.data   1561254500                       # number of overall MSHR uncacheable cycles
system.cpu.dcache.overall_mshr_uncacheable_latency::total   1561254500                       # number of overall MSHR uncacheable cycles
system.cpu.dcache.ReadReq_mshr_miss_rate::cpu.data     0.149927                       # mshr miss rate for ReadReq accesses
system.cpu.dcache.ReadReq_mshr_miss_rate::total     0.149927                       # mshr miss rate for ReadReq accesses
system.cpu.dcache.WriteReq_mshr_miss_rate::cpu.data     0.031529                       # mshr miss rate for WriteReq accesses
system.cpu.dcache.WriteReq_mshr_miss_rate::total     0.031529                       # mshr miss rate for WriteReq accesses
system.cpu.dcache.LoadLockedReq_mshr_miss_rate::cpu.data     0.117704                       # mshr miss rate for LoadLockedReq accesses
system.cpu.dcache.LoadLockedReq_mshr_miss_rate::total     0.117704                       # mshr miss rate for LoadLockedReq accesses
system.cpu.dcache.demand_mshr_miss_rate::cpu.data     0.109770                       # mshr miss rate for demand accesses
system.cpu.dcache.demand_mshr_miss_rate::total     0.109770                       # mshr miss rate for demand accesses
system.cpu.dcache.overall_mshr_miss_rate::cpu.data     0.109770                       # mshr miss rate for overall accesses
system.cpu.dcache.overall_mshr_miss_rate::total     0.109770                       # mshr miss rate for overall accesses
system.cpu.dcache.ReadReq_avg_mshr_miss_latency::cpu.data 88191.890245                       # average ReadReq mshr miss latency
system.cpu.dcache.ReadReq_avg_mshr_miss_latency::total 88191.890245                       # average ReadReq mshr miss latency
system.cpu.dcache.WriteReq_avg_mshr_miss_latency::cpu.data 86004.994108                       # average WriteReq mshr miss latency
system.cpu.dcache.WriteReq_avg_mshr_miss_latency::total 86004.994108                       # average WriteReq mshr miss latency
system.cpu.dcache.LoadLockedReq_avg_mshr_miss_latency::cpu.data 85443.725380                       # average LoadLockedReq mshr miss latency
system.cpu.dcache.LoadLockedReq_avg_mshr_miss_latency::total 85443.725380                       # average LoadLockedReq mshr miss latency
system.cpu.dcache.demand_avg_mshr_miss_latency::cpu.data 87978.852158                       # average overall mshr miss latency
system.cpu.dcache.demand_avg_mshr_miss_latency::total 87978.852158                       # average overall mshr miss latency
system.cpu.dcache.overall_avg_mshr_miss_latency::cpu.data 87978.852158                       # average overall mshr miss latency
system.cpu.dcache.overall_avg_mshr_miss_latency::total 87978.852158                       # average overall mshr miss latency
system.cpu.dcache.ReadReq_avg_mshr_uncacheable_latency::cpu.data 223899.971318                       # average ReadReq mshr uncacheable latency
system.cpu.dcache.ReadReq_avg_mshr_uncacheable_latency::total 223899.971318                       # average ReadReq mshr uncacheable latency
system.cpu.dcache.overall_avg_mshr_uncacheable_latency::cpu.data 89634.544724                       # average overall mshr uncacheable latency
system.cpu.dcache.overall_avg_mshr_uncacheable_latency::total 89634.544724                       # average overall mshr uncacheable latency
system.cpu.icache.tags.pwrStateResidencyTicks::UNDEFINED 2674494349500                       # Cumulative time (in ticks) in various power states
system.cpu.icache.tags.replacements           1652783                       # number of replacements
system.cpu.icache.tags.tagsinuse            63.996147                       # Cycle average of tags in use
system.cpu.icache.tags.total_refs            95887473                       # Total number of references to valid blocks.
system.cpu.icache.tags.sampled_refs           1652783                       # Sample count of references to valid blocks.
system.cpu.icache.tags.avg_refs             58.015767                       # Average number of references to valid blocks.
system.cpu.icache.tags.warmup_cycle         891619500                       # Cycle when the warmup percentage was hit.
system.cpu.icache.tags.occ_blocks::cpu.inst    63.996147                       # Average occupied blocks per requestor
system.cpu.icache.tags.occ_percent::cpu.inst     0.999940                       # Average percentage of cache occupancy
system.cpu.icache.tags.occ_percent::total     0.999940                       # Average percentage of cache occupancy
system.cpu.icache.tags.occ_task_id_blocks::1024           64                       # Occupied blocks per task id
system.cpu.icache.tags.age_task_id_blocks_1024::0           46                       # Occupied blocks per task id
system.cpu.icache.tags.age_task_id_blocks_1024::1           17                       # Occupied blocks per task id
system.cpu.icache.tags.age_task_id_blocks_1024::2            1                       # Occupied blocks per task id
system.cpu.icache.tags.occ_task_id_percent::1024            1                       # Percentage of cache occupancy per task id
system.cpu.icache.tags.tag_accesses         196739213                       # Number of tag accesses
system.cpu.icache.tags.data_accesses        196739213                       # Number of data accesses
system.cpu.icache.pwrStateResidencyTicks::UNDEFINED 2674494349500                       # Cumulative time (in ticks) in various power states
system.cpu.icache.ReadReq_hits::cpu.inst     95890093                       # number of ReadReq hits
system.cpu.icache.ReadReq_hits::total        95890093                       # number of ReadReq hits
system.cpu.icache.demand_hits::cpu.inst      95890093                       # number of demand (read+write) hits
system.cpu.icache.demand_hits::total         95890093                       # number of demand (read+write) hits
system.cpu.icache.overall_hits::cpu.inst     95890093                       # number of overall hits
system.cpu.icache.overall_hits::total        95890093                       # number of overall hits
system.cpu.icache.ReadReq_misses::cpu.inst      1653009                       # number of ReadReq misses
system.cpu.icache.ReadReq_misses::total       1653009                       # number of ReadReq misses
system.cpu.icache.demand_misses::cpu.inst      1653009                       # number of demand (read+write) misses
system.cpu.icache.demand_misses::total        1653009                       # number of demand (read+write) misses
system.cpu.icache.overall_misses::cpu.inst      1653009                       # number of overall misses
system.cpu.icache.overall_misses::total       1653009                       # number of overall misses
system.cpu.icache.ReadReq_miss_latency::cpu.inst 102845916500                       # number of ReadReq miss cycles
system.cpu.icache.ReadReq_miss_latency::total 102845916500                       # number of ReadReq miss cycles
system.cpu.icache.demand_miss_latency::cpu.inst 102845916500                       # number of demand (read+write) miss cycles
system.cpu.icache.demand_miss_latency::total 102845916500                       # number of demand (read+write) miss cycles
system.cpu.icache.overall_miss_latency::cpu.inst 102845916500                       # number of overall miss cycles
system.cpu.icache.overall_miss_latency::total 102845916500                       # number of overall miss cycles
system.cpu.icache.ReadReq_accesses::cpu.inst     97543102                       # number of ReadReq accesses(hits+misses)
system.cpu.icache.ReadReq_accesses::total     97543102                       # number of ReadReq accesses(hits+misses)
system.cpu.icache.demand_accesses::cpu.inst     97543102                       # number of demand (read+write) accesses
system.cpu.icache.demand_accesses::total     97543102                       # number of demand (read+write) accesses
system.cpu.icache.overall_accesses::cpu.inst     97543102                       # number of overall (read+write) accesses
system.cpu.icache.overall_accesses::total     97543102                       # number of overall (read+write) accesses
system.cpu.icache.ReadReq_miss_rate::cpu.inst     0.016946                       # miss rate for ReadReq accesses
system.cpu.icache.ReadReq_miss_rate::total     0.016946                       # miss rate for ReadReq accesses
system.cpu.icache.demand_miss_rate::cpu.inst     0.016946                       # miss rate for demand accesses
system.cpu.icache.demand_miss_rate::total     0.016946                       # miss rate for demand accesses
system.cpu.icache.overall_miss_rate::cpu.inst     0.016946                       # miss rate for overall accesses
system.cpu.icache.overall_miss_rate::total     0.016946                       # miss rate for overall accesses
system.cpu.icache.ReadReq_avg_miss_latency::cpu.inst 62217.396578                       # average ReadReq miss latency
system.cpu.icache.ReadReq_avg_miss_latency::total 62217.396578                       # average ReadReq miss latency
system.cpu.icache.demand_avg_miss_latency::cpu.inst 62217.396578                       # average overall miss latency
system.cpu.icache.demand_avg_miss_latency::total 62217.396578                       # average overall miss latency
system.cpu.icache.overall_avg_miss_latency::cpu.inst 62217.396578                       # average overall miss latency
system.cpu.icache.overall_avg_miss_latency::total 62217.396578                       # average overall miss latency
system.cpu.icache.blocked_cycles::no_mshrs            0                       # number of cycles access was blocked
system.cpu.icache.blocked_cycles::no_targets            0                       # number of cycles access was blocked
system.cpu.icache.blocked::no_mshrs                 0                       # number of cycles access was blocked
system.cpu.icache.blocked::no_targets               0                       # number of cycles access was blocked
system.cpu.icache.avg_blocked_cycles::no_mshrs          nan                       # average number of cycles each access was blocked
system.cpu.icache.avg_blocked_cycles::no_targets          nan                       # average number of cycles each access was blocked
system.cpu.icache.writebacks::writebacks      1652783                       # number of writebacks
system.cpu.icache.writebacks::total           1652783                       # number of writebacks
system.cpu.icache.ReadReq_mshr_misses::cpu.inst      1653009                       # number of ReadReq MSHR misses
system.cpu.icache.ReadReq_mshr_misses::total      1653009                       # number of ReadReq MSHR misses
system.cpu.icache.demand_mshr_misses::cpu.inst      1653009                       # number of demand (read+write) MSHR misses
system.cpu.icache.demand_mshr_misses::total      1653009                       # number of demand (read+write) MSHR misses
system.cpu.icache.overall_mshr_misses::cpu.inst      1653009                       # number of overall MSHR misses
system.cpu.icache.overall_mshr_misses::total      1653009                       # number of overall MSHR misses
system.cpu.icache.ReadReq_mshr_miss_latency::cpu.inst 101192907500                       # number of ReadReq MSHR miss cycles
system.cpu.icache.ReadReq_mshr_miss_latency::total 101192907500                       # number of ReadReq MSHR miss cycles
system.cpu.icache.demand_mshr_miss_latency::cpu.inst 101192907500                       # number of demand (read+write) MSHR miss cycles
system.cpu.icache.demand_mshr_miss_latency::total 101192907500                       # number of demand (read+write) MSHR miss cycles
system.cpu.icache.overall_mshr_miss_latency::cpu.inst 101192907500                       # number of overall MSHR miss cycles
system.cpu.icache.overall_mshr_miss_latency::total 101192907500                       # number of overall MSHR miss cycles
system.cpu.icache.ReadReq_mshr_miss_rate::cpu.inst     0.016946                       # mshr miss rate for ReadReq accesses
system.cpu.icache.ReadReq_mshr_miss_rate::total     0.016946                       # mshr miss rate for ReadReq accesses
system.cpu.icache.demand_mshr_miss_rate::cpu.inst     0.016946                       # mshr miss rate for demand accesses
system.cpu.icache.demand_mshr_miss_rate::total     0.016946                       # mshr miss rate for demand accesses
system.cpu.icache.overall_mshr_miss_rate::cpu.inst     0.016946                       # mshr miss rate for overall accesses
system.cpu.icache.overall_mshr_miss_rate::total     0.016946                       # mshr miss rate for overall accesses
[...]
system.l2.overall_avg_mshr_uncacheable_latency::cpu.data 120032.093023                       # average overall mshr uncacheable latency
system.l2.overall_avg_mshr_uncacheable_latency::total 120032.093023                       # average overall mshr uncacheable latency
system.membus.snoop_filter.tot_requests        110986                       # Total number of requests made to the snoop filter.
system.membus.snoop_filter.hit_single_requests        56344                       # Number of requests hitting in the snoop filter with a single holder of the requested data.
system.membus.snoop_filter.hit_multi_requests           30                       # Number of requests hitting in the snoop filter with multiple (>1) holders of the requested data.
system.membus.snoop_filter.tot_snoops               0                       # Total number of snoops made to the snoop filter.
system.membus.snoop_filter.hit_single_snoops            0                       # Number of snoops hitting in the snoop filter with a single holder of the requested data.
system.membus.snoop_filter.hit_multi_snoops            0                       # Number of snoops hitting in the snoop filter with multiple (>1) holders of the requested data.
system.membus.pwrStateResidencyTicks::UNDEFINED   7739331000                       # Cumulative time (in ticks) in various power states
system.membus.trans_dist::ReadReq                 610                       # Transaction distribution
system.membus.trans_dist::ReadResp              41973                       # Transaction distribution
system.membus.trans_dist::WriteReq                465                       # Transaction distribution
system.membus.trans_dist::WriteResp               465                       # Transaction distribution
system.membus.trans_dist::WritebackDirty        17075                       # Transaction distribution
system.membus.trans_dist::CleanEvict            37567                       # Transaction distribution
system.membus.trans_dist::ReadExReq              7683                       # Transaction distribution
system.membus.trans_dist::ReadExResp             7683                       # Transaction distribution
system.membus.trans_dist::ReadSharedReq         41363                       # Transaction distribution
system.membus.trans_dist::InvalidateReq          5664                       # Transaction distribution
system.membus.pkt_count_system.iocache.mem_side::system.mem_ctrls.port        11382                       # Packet count per connected master and slave (bytes)
system.membus.pkt_count_system.iocache.mem_side::total        11382                       # Packet count per connected master and slave (bytes)
system.membus.pkt_count_system.l2.mem_side::system.bridge.slave         2150                       # Packet count per connected master and slave (bytes)
system.membus.pkt_count_system.l2.mem_side::system.mem_ctrls.port       146989                       # Packet count per connected master and slave (bytes)
system.membus.pkt_count_system.l2.mem_side::total       149139                       # Packet count per connected master and slave (bytes)
system.membus.pkt_count::total                 160521                       # Packet count per connected master and slave (bytes)
system.membus.pkt_size_system.iocache.mem_side::system.mem_ctrls.port       724992                       # Cumulative packet size per connected master and slave (bytes)
system.membus.pkt_size_system.iocache.mem_side::total       724992                       # Cumulative packet size per connected master and slave (bytes)
system.membus.pkt_size_system.l2.mem_side::system.bridge.slave         1743                       # Cumulative packet size per connected master and slave (bytes)
system.membus.pkt_size_system.l2.mem_side::system.mem_ctrls.port      7735040                       # Cumulative packet size per connected master and slave (bytes)
system.membus.pkt_size_system.l2.mem_side::total      7736783                       # Cumulative packet size per connected master and slave (bytes)
system.membus.pkt_size::total                 8461775                       # Cumulative packet size per connected master and slave (bytes)
system.membus.snoops                               27                       # Total snoops (count)
system.membus.snoopTraffic                       3456                       # Total snoop traffic (bytes)
system.membus.snoop_fanout::samples             55785                       # Request fanout histogram
system.membus.snoop_fanout::mean             0.000502                       # Request fanout histogram
system.membus.snoop_fanout::stdev            0.022398                       # Request fanout histogram
system.membus.snoop_fanout::underflows              0      0.00%      0.00% # Request fanout histogram
system.membus.snoop_fanout::0                   55757     99.95%     99.95% # Request fanout histogram
system.membus.snoop_fanout::1                      28      0.05%    100.00% # Request fanout histogram
system.membus.snoop_fanout::2                       0      0.00%    100.00% # Request fanout histogram
system.membus.snoop_fanout::overflows               0      0.00%    100.00% # Request fanout histogram
system.membus.snoop_fanout::min_value               0                       # Request fanout histogram
system.membus.snoop_fanout::max_value               1                       # Request fanout histogram
system.membus.snoop_fanout::total               55785                       # Request fanout histogram
system.membus.reqLayer0.occupancy             1784500                       # Layer occupancy (ticks)
system.membus.reqLayer0.utilization               0.0                       # Layer utilization (%)
system.membus.reqLayer1.occupancy           249742681                       # Layer occupancy (ticks)
system.membus.reqLayer1.utilization               3.2                       # Layer utilization (%)
system.membus.respLayer1.occupancy             256765                       # Layer occupancy (ticks)
system.membus.respLayer1.utilization              0.0                       # Layer utilization (%)
system.membus.respLayer2.occupancy          463176250                       # Layer occupancy (ticks)
system.membus.respLayer2.utilization              6.0                       # Layer utilization (%)
system.membus.badaddr_responder.pwrStateResidencyTicks::UNDEFINED   7739331000                       # Cumulative time (in ticks) in various power states
system.tol2bus.snoop_filter.tot_requests       143012                       # Total number of requests made to the snoop filter.
system.tol2bus.snoop_filter.hit_single_requests        71511                       # Number of requests hitting in the snoop filter with a single holder of the requested data.
system.tol2bus.snoop_filter.hit_multi_requests          293                       # Number of requests hitting in the snoop filter with multiple (>1) holders of the requested data.
system.tol2bus.snoop_filter.tot_snoops          24419                       # Total number of snoops made to the snoop filter.
system.tol2bus.snoop_filter.hit_single_snoops        24277                       # Number of snoops hitting in the snoop filter with a single holder of the requested data.
system.tol2bus.snoop_filter.hit_multi_snoops          142                       # Number of snoops hitting in the snoop filter with multiple (>1) holders of the requested data.
system.tol2bus.pwrStateResidencyTicks::UNDEFINED   7739331000                       # Cumulative time (in ticks) in various power states
system.tol2bus.trans_dist::ReadReq                610                       # Transaction distribution
system.tol2bus.trans_dist::ReadResp             63890                       # Transaction distribution
system.tol2bus.trans_dist::WriteReq               465                       # Transaction distribution
system.tol2bus.trans_dist::WriteResp              465                       # Transaction distribution
system.tol2bus.trans_dist::WritebackDirty        25268                       # Transaction distribution
system.tol2bus.trans_dist::WritebackClean        40963                       # Transaction distribution
system.tol2bus.trans_dist::CleanEvict           67736                       # Transaction distribution
system.tol2bus.trans_dist::UpgradeReq               1                       # Transaction distribution
system.tol2bus.trans_dist::UpgradeResp              1                       # Transaction distribution
system.tol2bus.trans_dist::ReadExReq             8254                       # Transaction distribution
system.tol2bus.trans_dist::ReadExResp            8254                       # Transaction distribution
system.tol2bus.trans_dist::ReadCleanReq         40966                       # Transaction distribution
system.tol2bus.trans_dist::ReadSharedReq        22314                       # Transaction distribution
system.tol2bus.trans_dist::InvalidateReq            1                       # Transaction distribution
system.tol2bus.pkt_count_system.cpu.icache.mem_side::system.l2.cpu_side       122895                       # Packet count per connected master and slave (bytes)
system.tol2bus.pkt_count_system.cpu.dcache.mem_side::system.l2.cpu_side        93802                       # Packet count per connected master and slave (bytes)
system.tol2bus.pkt_count::total                216697                       # Packet count per connected master and slave (bytes)
system.tol2bus.pkt_size_system.cpu.icache.mem_side::system.l2.cpu_side     10486912                       # Cumulative packet size per connected master and slave (bytes)
system.tol2bus.pkt_size_system.cpu.dcache.mem_side::system.l2.cpu_side      5688143                       # Cumulative packet size per connected master and slave (bytes)
system.tol2bus.pkt_size::total               16175055                       # Cumulative packet size per connected master and slave (bytes)
system.tol2bus.snoops                           62518                       # Total snoops (count)
system.tol2bus.snoopTraffic                   1464064                       # Total snoop traffic (bytes)
system.tol2bus.snoop_fanout::samples           135074                       # Request fanout histogram
system.tol2bus.snoop_fanout::mean            0.184010                       # Request fanout histogram
system.tol2bus.snoop_fanout::stdev           0.390198                       # Request fanout histogram
system.tol2bus.snoop_fanout::underflows             0      0.00%      0.00% # Request fanout histogram
system.tol2bus.snoop_fanout::0                 110361     81.70%     81.70% # Request fanout histogram
system.tol2bus.snoop_fanout::1                  24571     18.19%     99.89% # Request fanout histogram
system.tol2bus.snoop_fanout::2                    142      0.11%    100.00% # Request fanout histogram
system.tol2bus.snoop_fanout::overflows              0      0.00%    100.00% # Request fanout histogram
system.tol2bus.snoop_fanout::min_value              0                       # Request fanout histogram
system.tol2bus.snoop_fanout::max_value              2                       # Request fanout histogram
system.tol2bus.snoop_fanout::total             135074                       # Request fanout histogram
system.tol2bus.reqLayer0.occupancy          181916000                       # Layer occupancy (ticks)
system.tol2bus.reqLayer0.utilization              2.4                       # Layer utilization (%)
system.tol2bus.snoopLayer0.occupancy            75735                       # Layer occupancy (ticks)
system.tol2bus.snoopLayer0.utilization            0.0                       # Layer utilization (%)
system.tol2bus.respLayer0.occupancy         102415000                       # Layer occupancy (ticks)
system.tol2bus.respLayer0.utilization             1.3                       # Layer utilization (%)
system.tol2bus.respLayer1.occupancy          77195500                       # Layer occupancy (ticks)
system.tol2bus.respLayer1.utilization             1.0                       # Layer utilization (%)
system.tsunami.backdoor.pwrStateResidencyTicks::UNDEFINED   7739331000                       # Cumulative time (in ticks) in various power states
system.tsunami.cchip.pwrStateResidencyTicks::UNDEFINED   7739331000                       # Cumulative time (in ticks) in various power states
system.tsunami.pchip.pwrStateResidencyTicks::UNDEFINED   7739331000                       # Cumulative time (in ticks) in various power states
system.tsunami.ethernet.pwrStateResidencyTicks::UNDEFINED   7739331000                       # Cumulative time (in ticks) in various power states
system.tsunami.ethernet.descDMAReads                0                       # Number of descriptors the device read w/ DMA
system.tsunami.ethernet.descDMAWrites               0                       # Number of descriptors the device wrote w/ DMA
system.tsunami.ethernet.descDmaReadBytes            0                       # number of descriptor bytes read w/ DMA
system.tsunami.ethernet.descDmaWriteBytes            0                       # number of descriptor bytes write w/ DMA
system.tsunami.ethernet.postedSwi                   0                       # number of software interrupts posted to CPU
system.tsunami.ethernet.coalescedSwi              nan                       # average number of Swi's coalesced into each post
system.tsunami.ethernet.totalSwi                    0                       # total number of Swi written to ISR
system.tsunami.ethernet.postedRxIdle                0                       # number of rxIdle interrupts posted to CPU
system.tsunami.ethernet.coalescedRxIdle           nan                       # average number of RxIdle's coalesced into each post
system.tsunami.ethernet.totalRxIdle                 0                       # total number of RxIdle written to ISR
system.tsunami.ethernet.postedRxOk                  0                       # number of RxOk interrupts posted to CPU
system.tsunami.ethernet.coalescedRxOk             nan                       # average number of RxOk's coalesced into each post
system.tsunami.ethernet.totalRxOk                   0                       # total number of RxOk written to ISR
system.tsunami.ethernet.postedRxDesc                0                       # number of RxDesc interrupts posted to CPU
system.tsunami.ethernet.coalescedRxDesc           nan                       # average number of RxDesc's coalesced into each post
system.tsunami.ethernet.totalRxDesc                 0                       # total number of RxDesc written to ISR
system.tsunami.ethernet.postedTxOk                  0                       # number of TxOk interrupts posted to CPU
system.tsunami.ethernet.coalescedTxOk             nan                       # average number of TxOk's coalesced into each post
system.tsunami.ethernet.totalTxOk                   0                       # total number of TxOk written to ISR
system.tsunami.ethernet.postedTxIdle                0                       # number of TxIdle interrupts posted to CPU
system.tsunami.ethernet.coalescedTxIdle           nan                       # average number of TxIdle's coalesced into each post
system.tsunami.ethernet.totalTxIdle                 0                       # total number of TxIdle written to ISR
system.tsunami.ethernet.postedTxDesc                0                       # number of TxDesc interrupts posted to CPU
system.tsunami.ethernet.coalescedTxDesc           nan                       # average number of TxDesc's coalesced into each post
system.tsunami.ethernet.totalTxDesc                 0                       # total number of TxDesc written to ISR
system.tsunami.ethernet.postedRxOrn                 0                       # number of RxOrn posted to CPU
system.tsunami.ethernet.coalescedRxOrn            nan                       # average number of RxOrn's coalesced into each post
system.tsunami.ethernet.totalRxOrn                  0                       # total number of RxOrn written to ISR
system.tsunami.ethernet.coalescedTotal            nan                       # average number of interrupts coalesced into each post
system.tsunami.ethernet.postedInterrupts            0                       # number of posts to CPU
system.tsunami.ethernet.droppedPackets              0                       # number of packets dropped
system.tsunami.fake_OROM.pwrStateResidencyTicks::UNDEFINED   7739331000                       # Cumulative time (in ticks) in various power states
system.tsunami.fake_ata0.pwrStateResidencyTicks::UNDEFINED   7739331000                       # Cumulative time (in ticks) in various power states
system.tsunami.fake_ata1.pwrStateResidencyTicks::UNDEFINED   7739331000                       # Cumulative time (in ticks) in various power states
system.tsunami.fake_pnp_addr.pwrStateResidencyTicks::UNDEFINED   7739331000                       # Cumulative time (in ticks) in various power states
system.tsunami.fake_pnp_read0.pwrStateResidencyTicks::UNDEFINED   7739331000                       # Cumulative time (in ticks) in various power states
system.tsunami.fake_pnp_read1.pwrStateResidencyTicks::UNDEFINED   7739331000                       # Cumulative time (in ticks) in various power states
system.tsunami.fake_pnp_read2.pwrStateResidencyTicks::UNDEFINED   7739331000                       # Cumulative time (in ticks) in various power states
system.tsunami.fake_pnp_read3.pwrStateResidencyTicks::UNDEFINED   7739331000                       # Cumulative time (in ticks) in various power states
system.tsunami.fake_pnp_read4.pwrStateResidencyTicks::UNDEFINED   7739331000                       # Cumulative time (in ticks) in various power states
system.tsunami.fake_pnp_read5.pwrStateResidencyTicks::UNDEFINED   7739331000                       # Cumulative time (in ticks) in various power states
system.tsunami.fake_pnp_read6.pwrStateResidencyTicks::UNDEFINED   7739331000                       # Cumulative time (in ticks) in various power states
system.tsunami.fake_pnp_read7.pwrStateResidencyTicks::UNDEFINED   7739331000                       # Cumulative time (in ticks) in various power states
system.tsunami.fake_pnp_write.pwrStateResidencyTicks::UNDEFINED   7739331000                       # Cumulative time (in ticks) in various power states
system.tsunami.fake_ppc.pwrStateResidencyTicks::UNDEFINED   7739331000                       # Cumulative time (in ticks) in various power states
system.tsunami.fake_sm_chip.pwrStateResidencyTicks::UNDEFINED   7739331000                       # Cumulative time (in ticks) in various power states
system.tsunami.fake_uart1.pwrStateResidencyTicks::UNDEFINED   7739331000                       # Cumulative time (in ticks) in various power states
system.tsunami.fake_uart2.pwrStateResidencyTicks::UNDEFINED   7739331000                       # Cumulative time (in ticks) in various power states
system.tsunami.fake_uart3.pwrStateResidencyTicks::UNDEFINED   7739331000                       # Cumulative time (in ticks) in various power states
system.tsunami.fake_uart4.pwrStateResidencyTicks::UNDEFINED   7739331000                       # Cumulative time (in ticks) in various power states
system.tsunami.fb.pwrStateResidencyTicks::UNDEFINED   7739331000                       # Cumulative time (in ticks) in various power states
system.tsunami.ide.pwrStateResidencyTicks::UNDEFINED   7739331000                       # Cumulative time (in ticks) in various power states
system.tsunami.io.pwrStateResidencyTicks::UNDEFINED   7739331000                       # Cumulative time (in ticks) in various power states
system.tsunami.uart.pwrStateResidencyTicks::UNDEFINED   7739331000                       # Cumulative time (in ticks) in various power states

---------- End Simulation Statistics   ----------
