
---------- Begin Simulation Statistics ----------
sim_seconds                                  2.475404                       # Number of seconds simulated
sim_ticks                                2475403527500                       # Number of ticks simulated
final_tick                               2475403527500                       # Number of ticks from beginning of simulation (restored from checkpoints and never reset)
sim_freq                                 1000000000000                       # Frequency of simulated ticks
host_inst_rate                                 197682                       # Simulator instruction rate (inst/s)
host_op_rate                                   197682                       # Simulator op (including micro ops) rate (op/s)
host_tick_rate                             5343426041                       # Simulator tick rate (ticks/s)
host_mem_usage                                 739176                       # Number of bytes of host memory used
host_seconds                                   463.26                       # Real time elapsed on the host
sim_insts                                    91578436                       # Number of instructions simulated
sim_ops                                      91578436                       # Number of ops (including micro ops) simulated
system.voltage_domain.voltage                       1                       # Voltage in Volts
system.clk_domain.clock                          1000                       # Clock period in ticks
system.mem_ctrls.pwrStateResidencyTicks::UNDEFINED 2475403527500                       # Cumulative time (in ticks) in various power states
system.mem_ctrls.bytes_read::cpu.inst         7065888                       # Number of bytes read from this memory
system.mem_ctrls.bytes_read::cpu.data        31738240                       # Number of bytes read from this memory
system.mem_ctrls.bytes_read::tsunami.ide         4032                       # Number of bytes read from this memory
system.mem_ctrls.bytes_read::total           38808160                       # Number of bytes read from this memory
system.mem_ctrls.bytes_inst_read::cpu.inst      7065888                       # Number of instructions bytes read from this memory
system.mem_ctrls.bytes_inst_read::total       7065888                       # Number of instructions bytes read from this memory
system.mem_ctrls.bytes_written::writebacks     20709920                       # Number of bytes written to this memory
system.mem_ctrls.bytes_written::total        20709920                       # Number of bytes written to this memory
system.mem_ctrls.num_reads::cpu.inst           220809                       # Number of read requests responded to by this memory
system.mem_ctrls.num_reads::cpu.data           991820                       # Number of read requests responded to by this memory
system.mem_ctrls.num_reads::tsunami.ide           126                       # Number of read requests responded to by this memory
system.mem_ctrls.num_reads::total             1212755                       # Number of read requests responded to by this memory
system.mem_ctrls.num_writes::writebacks        647185                       # Number of write requests responded to by this memory
system.mem_ctrls.num_writes::total             647185                       # Number of write requests responded to by this memory
system.mem_ctrls.bw_read::cpu.inst            2854439                       # Total read bandwidth from this memory (bytes/s)
system.mem_ctrls.bw_read::cpu.data           12821441                       # Total read bandwidth from this memory (bytes/s)
system.mem_ctrls.bw_read::tsunami.ide            1629                       # Total read bandwidth from this memory (bytes/s)
system.mem_ctrls.bw_read::total              15677509                       # Total read bandwidth from this memory (bytes/s)
system.mem_ctrls.bw_inst_read::cpu.inst       2854439                       # Instruction read bandwidth from this memory (bytes/s)
system.mem_ctrls.bw_inst_read::total          2854439                       # Instruction read bandwidth from this memory (bytes/s)
system.mem_ctrls.bw_write::writebacks         8366280                       # Write bandwidth from this memory (bytes/s)
system.mem_ctrls.bw_write::total              8366280                       # Write bandwidth from this memory (bytes/s)
system.mem_ctrls.bw_total::writebacks         8366280                       # Total bandwidth to/from this memory (bytes/s)
system.mem_ctrls.bw_total::cpu.inst           2854439                       # Total bandwidth to/from this memory (bytes/s)
system.mem_ctrls.bw_total::cpu.data          12821441                       # Total bandwidth to/from this memory (bytes/s)
system.mem_ctrls.bw_total::tsunami.ide           1629                       # Total bandwidth to/from this memory (bytes/s)
system.mem_ctrls.bw_total::total             24043789                       # Total bandwidth to/from this memory (bytes/s)
system.mem_ctrls.readReqs                     1212755                       # Number of read requests accepted
system.mem_ctrls.writeReqs                     647185                       # Number of write requests accepted
system.mem_ctrls.readBursts                   1212755                       # Number of DRAM read bursts, including those serviced by the write queue
system.mem_ctrls.writeBursts                   647185                       # Number of DRAM write bursts, including those merged in the write queue
system.mem_ctrls.bytesReadDRAM               77042368                       # Total number of bytes read from DRAM
system.mem_ctrls.bytesReadWrQ                  573952                       # Total number of bytes read from write queue
system.mem_ctrls.bytesWritten                25826816                       # Total number of bytes written to DRAM
system.mem_ctrls.bytesReadSys                38808160                       # Total read bytes from the system interface side
system.mem_ctrls.bytesWrittenSys             20709920                       # Total written bytes from the system interface side
system.mem_ctrls.servicedByWrQ                   8968                       # Number of DRAM read bursts serviced by the write queue
system.mem_ctrls.mergedWrBursts                243621                       # Number of DRAM write bursts merged with an existing one
system.mem_ctrls.neitherReadNorWriteReqs            0                       # Number of requests that are neither read nor write
system.mem_ctrls.perBankRdBursts::0             90507                       # Per bank write bursts
system.mem_ctrls.perBankRdBursts::1             71107                       # Per bank write bursts
system.mem_ctrls.perBankRdBursts::2             72382                       # Per bank write bursts
system.mem_ctrls.perBankRdBursts::3             50214                       # Per bank write bursts
system.mem_ctrls.perBankRdBursts::4             51353                       # Per bank write bursts
system.mem_ctrls.perBankRdBursts::5             52550                       # Per bank write bursts
system.mem_ctrls.perBankRdBursts::6             53869                       # Per bank write bursts
system.mem_ctrls.perBankRdBursts::7             66728                       # Per bank write bursts
system.mem_ctrls.perBankRdBursts::8             55915                       # Per bank write bursts
system.mem_ctrls.perBankRdBursts::9            109494                       # Per bank write bursts
system.mem_ctrls.perBankRdBursts::10            82278                       # Per bank write bursts
system.mem_ctrls.perBankRdBursts::11           126362                       # Per bank write bursts
system.mem_ctrls.perBankRdBursts::12            88490                       # Per bank write bursts
system.mem_ctrls.perBankRdBursts::13            83228                       # Per bank write bursts
system.mem_ctrls.perBankRdBursts::14            67281                       # Per bank write bursts
system.mem_ctrls.perBankRdBursts::15            82029                       # Per bank write bursts
system.mem_ctrls.perBankWrBursts::0             26165                       # Per bank write bursts
system.mem_ctrls.perBankWrBursts::1             30254                       # Per bank write bursts
system.mem_ctrls.perBankWrBursts::2             22955                       # Per bank write bursts
system.mem_ctrls.perBankWrBursts::3             21927                       # Per bank write bursts
system.mem_ctrls.perBankWrBursts::4             22373                       # Per bank write bursts
system.mem_ctrls.perBankWrBursts::5             22839                       # Per bank write bursts
system.mem_ctrls.perBankWrBursts::6             22801                       # Per bank write bursts
system.mem_ctrls.perBankWrBursts::7             25013                       # Per bank write bursts
system.mem_ctrls.perBankWrBursts::8             21999                       # Per bank write bursts
system.mem_ctrls.perBankWrBursts::9             26423                       # Per bank write bursts
system.mem_ctrls.perBankWrBursts::10            24647                       # Per bank write bursts
system.mem_ctrls.perBankWrBursts::11            30391                       # Per bank write bursts
system.mem_ctrls.perBankWrBursts::12            25308                       # Per bank write bursts
system.mem_ctrls.perBankWrBursts::13            27296                       # Per bank write bursts
system.mem_ctrls.perBankWrBursts::14            24679                       # Per bank write bursts
system.mem_ctrls.perBankWrBursts::15            28474                       # Per bank write bursts
system.mem_ctrls.numRdRetry                         0                       # Number of times read queue was full causing retry
system.mem_ctrls.numWrRetry                         7                       # Number of times write queue was full causing retry
system.mem_ctrls.totGap                  2475403449500                       # Total gap between requests
system.mem_ctrls.readPktSize::0                     0                       # Read request sizes (log2)
system.mem_ctrls.readPktSize::1                     0                       # Read request sizes (log2)
system.mem_ctrls.readPktSize::2                     0                       # Read request sizes (log2)
system.mem_ctrls.readPktSize::3                     0                       # Read request sizes (log2)
system.mem_ctrls.readPktSize::4                     0                       # Read request sizes (log2)
system.mem_ctrls.readPktSize::5               1212755                       # Read request sizes (log2)
system.mem_ctrls.readPktSize::6                     0                       # Read request sizes (log2)
system.mem_ctrls.writePktSize::0                    0                       # Write request sizes (log2)
system.mem_ctrls.writePktSize::1                    0                       # Write request sizes (log2)
system.mem_ctrls.writePktSize::2                    0                       # Write request sizes (log2)
system.mem_ctrls.writePktSize::3                    0                       # Write request sizes (log2)
system.mem_ctrls.writePktSize::4                    0                       # Write request sizes (log2)
system.mem_ctrls.writePktSize::5               647185                       # Write request sizes (log2)
system.mem_ctrls.writePktSize::6                    0                       # Write request sizes (log2)
system.mem_ctrls.rdQLenPdf::0                 1203655                       # What read queue length does an incoming req see
system.mem_ctrls.rdQLenPdf::1                       3                       # What read queue length does an incoming req see
system.mem_ctrls.rdQLenPdf::2                       4                       # What read queue length does an incoming req see
system.mem_ctrls.rdQLenPdf::3                       4                       # What read queue length does an incoming req see
system.mem_ctrls.rdQLenPdf::4                       7                       # What read queue length does an incoming req see
system.mem_ctrls.rdQLenPdf::5                       9                       # What read queue length does an incoming req see
system.mem_ctrls.rdQLenPdf::6                       8                       # What read queue length does an incoming req see
system.mem_ctrls.rdQLenPdf::7                       9                       # What read queue length does an incoming req see
system.mem_ctrls.rdQLenPdf::8                      22                       # What read queue length does an incoming req see
system.mem_ctrls.rdQLenPdf::9                      14                       # What read queue length does an incoming req see
system.mem_ctrls.rdQLenPdf::10                      7                       # What read queue length does an incoming req see
system.mem_ctrls.rdQLenPdf::11                      6                       # What read queue length does an incoming req see
system.mem_ctrls.rdQLenPdf::12                      9                       # What read queue length does an incoming req see
system.mem_ctrls.rdQLenPdf::13                      7                       # What read queue length does an incoming req see
system.mem_ctrls.rdQLenPdf::14                      4                       # What read queue length does an incoming req see
system.mem_ctrls.rdQLenPdf::15                      5                       # What read queue length does an incoming req see
system.mem_ctrls.rdQLenPdf::16                      4                       # What read queue length does an incoming req see
system.mem_ctrls.rdQLenPdf::17                      3                       # What read queue length does an incoming req see
system.mem_ctrls.rdQLenPdf::18                      3                       # What read queue length does an incoming req see
system.mem_ctrls.rdQLenPdf::19                      2                       # What read queue length does an incoming req see
system.mem_ctrls.rdQLenPdf::20                      2                       # What read queue length does an incoming req see
system.mem_ctrls.rdQLenPdf::21                      0                       # What read queue length does an incoming req see
system.mem_ctrls.rdQLenPdf::22                      0                       # What read queue length does an incoming req see
system.mem_ctrls.rdQLenPdf::23                      0                       # What read queue length does an incoming req see
system.mem_ctrls.rdQLenPdf::24                      0                       # What read queue length does an incoming req see
system.mem_ctrls.rdQLenPdf::25                      0                       # What read queue length does an incoming req see
system.mem_ctrls.rdQLenPdf::26                      0                       # What read queue length does an incoming req see
system.mem_ctrls.rdQLenPdf::27                      0                       # What read queue length does an incoming req see
system.mem_ctrls.rdQLenPdf::28                      0                       # What read queue length does an incoming req see
system.mem_ctrls.rdQLenPdf::29                      0                       # What read queue length does an incoming req see
system.mem_ctrls.rdQLenPdf::30                      0                       # What read queue length does an incoming req see
system.mem_ctrls.rdQLenPdf::31                      0                       # What read queue length does an incoming req see
system.mem_ctrls.wrQLenPdf::0                       1                       # What write queue length does an incoming req see
system.mem_ctrls.wrQLenPdf::1                       1                       # What write queue length does an incoming req see
system.mem_ctrls.wrQLenPdf::2                       1                       # What write queue length does an incoming req see
system.mem_ctrls.wrQLenPdf::3                       1                       # What write queue length does an incoming req see
system.mem_ctrls.wrQLenPdf::4                       1                       # What write queue length does an incoming req see
system.mem_ctrls.wrQLenPdf::5                       1                       # What write queue length does an incoming req see
system.mem_ctrls.wrQLenPdf::6                       1                       # What write queue length does an incoming req see
system.mem_ctrls.wrQLenPdf::7                       1                       # What write queue length does an incoming req see
system.mem_ctrls.wrQLenPdf::8                       1                       # What write queue length does an incoming req see
system.mem_ctrls.wrQLenPdf::9                       1                       # What write queue length does an incoming req see
system.mem_ctrls.wrQLenPdf::10                      1                       # What write queue length does an incoming req see
system.mem_ctrls.wrQLenPdf::11                      1                       # What write queue length does an incoming req see
system.mem_ctrls.wrQLenPdf::12                      1                       # What write queue length does an incoming req see
system.mem_ctrls.wrQLenPdf::13                      1                       # What write queue length does an incoming req see
system.mem_ctrls.wrQLenPdf::14                      1                       # What write queue length does an incoming req see
system.mem_ctrls.wrQLenPdf::15                   5090                       # What write queue length does an incoming req see
system.mem_ctrls.wrQLenPdf::16                   5948                       # What write queue length does an incoming req see
system.mem_ctrls.wrQLenPdf::17                  23745                       # What write queue length does an incoming req see
system.mem_ctrls.wrQLenPdf::18                  23652                       # What write queue length does an incoming req see
system.mem_ctrls.wrQLenPdf::19                  23597                       # What write queue length does an incoming req see
system.mem_ctrls.wrQLenPdf::20                  23974                       # What write queue length does an incoming req see
system.mem_ctrls.wrQLenPdf::21                  23998                       # What write queue length does an incoming req see
system.mem_ctrls.wrQLenPdf::22                  24144                       # What write queue length does an incoming req see
system.mem_ctrls.wrQLenPdf::23                  25293                       # What write queue length does an incoming req see
system.mem_ctrls.wrQLenPdf::24                  24656                       # What write queue length does an incoming req see
system.mem_ctrls.wrQLenPdf::25                  24806                       # What write queue length does an incoming req see
system.mem_ctrls.wrQLenPdf::26                  25660                       # What write queue length does an incoming req see
system.mem_ctrls.wrQLenPdf::27                  24837                       # What write queue length does an incoming req see
system.mem_ctrls.wrQLenPdf::28                  24657                       # What write queue length does an incoming req see
system.mem_ctrls.wrQLenPdf::29                  24468                       # What write queue length does an incoming req see
system.mem_ctrls.wrQLenPdf::30                  24338                       # What write queue length does an incoming req see
system.mem_ctrls.wrQLenPdf::31                  23838                       # What write queue length does an incoming req see
system.mem_ctrls.wrQLenPdf::32                  23756                       # What write queue length does an incoming req see
system.mem_ctrls.wrQLenPdf::33                    298                       # What write queue length does an incoming req see
system.mem_ctrls.wrQLenPdf::34                    273                       # What write queue length does an incoming req see
system.mem_ctrls.wrQLenPdf::35                    208                       # What write queue length does an incoming req see
system.mem_ctrls.wrQLenPdf::36                    237                       # What write queue length does an incoming req see
system.mem_ctrls.wrQLenPdf::37                    199                       # What write queue length does an incoming req see
system.mem_ctrls.wrQLenPdf::38                    228                       # What write queue length does an incoming req see
system.mem_ctrls.wrQLenPdf::39                    182                       # What write queue length does an incoming req see
system.mem_ctrls.wrQLenPdf::40                    180                       # What write queue length does an incoming req see
system.mem_ctrls.wrQLenPdf::41                    191                       # What write queue length does an incoming req see
system.mem_ctrls.wrQLenPdf::42                    165                       # What write queue length does an incoming req see
system.mem_ctrls.wrQLenPdf::43                    126                       # What write queue length does an incoming req see
system.mem_ctrls.wrQLenPdf::44                    119                       # What write queue length does an incoming req see
system.mem_ctrls.wrQLenPdf::45                    106                       # What write queue length does an incoming req see
system.mem_ctrls.wrQLenPdf::46                    124                       # What write queue length does an incoming req see
system.mem_ctrls.wrQLenPdf::47                     87                       # What write queue length does an incoming req see
system.mem_ctrls.wrQLenPdf::48                     50                       # What write queue length does an incoming req see
system.mem_ctrls.wrQLenPdf::49                     57                       # What write queue length does an incoming req see
system.mem_ctrls.wrQLenPdf::50                     44                       # What write queue length does an incoming req see
system.mem_ctrls.wrQLenPdf::51                     40                       # What write queue length does an incoming req see
system.mem_ctrls.wrQLenPdf::52                     26                       # What write queue length does an incoming req see
system.mem_ctrls.wrQLenPdf::53                     15                       # What write queue length does an incoming req see
system.mem_ctrls.wrQLenPdf::54                     13                       # What write queue length does an incoming req see
system.mem_ctrls.wrQLenPdf::55                     13                       # What write queue length does an incoming req see
system.mem_ctrls.wrQLenPdf::56                     11                       # What write queue length does an incoming req see
system.mem_ctrls.wrQLenPdf::57                     12                       # What write queue length does an incoming req see
system.mem_ctrls.wrQLenPdf::58                     16                       # What write queue length does an incoming req see
system.mem_ctrls.wrQLenPdf::59                     24                       # What write queue length does an incoming req see
system.mem_ctrls.wrQLenPdf::60                     27                       # What write queue length does an incoming req see
system.mem_ctrls.wrQLenPdf::61                      7                       # What write queue length does an incoming req see
system.mem_ctrls.wrQLenPdf::62                      7                       # What write queue length does an incoming req see
system.mem_ctrls.wrQLenPdf::63                      7                       # What write queue length does an incoming req see
system.mem_ctrls.bytesPerActivate::samples       320055                       # Bytes accessed per row activation
system.mem_ctrls.bytesPerActivate::mean    321.408158                       # Bytes accessed per row activation
system.mem_ctrls.bytesPerActivate::gmean   182.674652                       # Bytes accessed per row activation
system.mem_ctrls.bytesPerActivate::stdev   348.928269                       # Bytes accessed per row activation
system.mem_ctrls.bytesPerActivate::0-127       122733     38.35%     38.35% # Bytes accessed per row activation
system.mem_ctrls.bytesPerActivate::128-255        77000     24.06%     62.41% # Bytes accessed per row activation
system.mem_ctrls.bytesPerActivate::256-383        27831      8.70%     71.10% # Bytes accessed per row activation
system.mem_ctrls.bytesPerActivate::384-511        15692      4.90%     76.00% # Bytes accessed per row activation
system.mem_ctrls.bytesPerActivate::512-639        11219      3.51%     79.51% # Bytes accessed per row activation
system.mem_ctrls.bytesPerActivate::640-767         6787      2.12%     81.63% # Bytes accessed per row activation
system.mem_ctrls.bytesPerActivate::768-895         5874      1.84%     83.47% # Bytes accessed per row activation
system.mem_ctrls.bytesPerActivate::896-1023         4848      1.51%     84.98% # Bytes accessed per row activation
system.mem_ctrls.bytesPerActivate::1024-1151        48071     15.02%    100.00% # Bytes accessed per row activation
system.mem_ctrls.bytesPerActivate::total       320055                       # Bytes accessed per row activation
system.mem_ctrls.rdPerTurnAround::samples        23489                       # Reads before turning the bus around for writes
system.mem_ctrls.rdPerTurnAround::mean      51.247861                       # Reads before turning the bus around for writes
system.mem_ctrls.rdPerTurnAround::stdev    330.467707                       # Reads before turning the bus around for writes
system.mem_ctrls.rdPerTurnAround::0-2047        23478     99.95%     99.95% # Reads before turning the bus around for writes
system.mem_ctrls.rdPerTurnAround::2048-4095            5      0.02%     99.97% # Reads before turning the bus around for writes
system.mem_ctrls.rdPerTurnAround::6144-8191            2      0.01%     99.98% # Reads before turning the bus around for writes
system.mem_ctrls.rdPerTurnAround::8192-10239            1      0.00%     99.99% # Reads before turning the bus around for writes
system.mem_ctrls.rdPerTurnAround::10240-12287            1      0.00%     99.99% # Reads before turning the bus around for writes
system.mem_ctrls.rdPerTurnAround::18432-20479            1      0.00%    100.00% # Reads before turning the bus around for writes
system.mem_ctrls.rdPerTurnAround::40960-43007            1      0.00%    100.00% # Reads before turning the bus around for writes
system.mem_ctrls.rdPerTurnAround::total         23489                       # Reads before turning the bus around for writes
system.mem_ctrls.wrPerTurnAround::samples        23489                       # Writes before turning the bus around for reads
system.mem_ctrls.wrPerTurnAround::mean      17.180127                       # Writes before turning the bus around for reads
system.mem_ctrls.wrPerTurnAround::gmean     16.885676                       # Writes before turning the bus around for reads
system.mem_ctrls.wrPerTurnAround::stdev      4.501764                       # Writes before turning the bus around for reads
system.mem_ctrls.wrPerTurnAround::16-17         18193     77.45%     77.45% # Writes before turning the bus around for reads
system.mem_ctrls.wrPerTurnAround::18-19          4196     17.86%     95.32% # Writes before turning the bus around for reads
system.mem_ctrls.wrPerTurnAround::20-21            77      0.33%     95.64% # Writes before turning the bus around for reads
system.mem_ctrls.wrPerTurnAround::22-23            43      0.18%     95.83% # Writes before turning the bus around for reads
system.mem_ctrls.wrPerTurnAround::24-25            44      0.19%     96.02% # Writes before turning the bus around for reads
system.mem_ctrls.wrPerTurnAround::26-27           311      1.32%     97.34% # Writes before turning the bus around for reads
system.mem_ctrls.wrPerTurnAround::28-29            79      0.34%     97.68% # Writes before turning the bus around for reads
system.mem_ctrls.wrPerTurnAround::30-31            34      0.14%     97.82% # Writes before turning the bus around for reads
system.mem_ctrls.wrPerTurnAround::32-33           159      0.68%     98.50% # Writes before turning the bus around for reads
system.mem_ctrls.wrPerTurnAround::34-35            34      0.14%     98.64% # Writes before turning the bus around for reads
system.mem_ctrls.wrPerTurnAround::36-37            47      0.20%     98.84% # Writes before turning the bus around for reads
system.mem_ctrls.wrPerTurnAround::38-39            37      0.16%     99.00% # Writes before turning the bus around for reads
system.mem_ctrls.wrPerTurnAround::40-41           124      0.53%     99.53% # Writes before turning the bus around for reads
system.mem_ctrls.wrPerTurnAround::42-43            21      0.09%     99.62% # Writes before turning the bus around for reads
system.mem_ctrls.wrPerTurnAround::44-45             7      0.03%     99.65% # Writes before turning the bus around for reads
system.mem_ctrls.wrPerTurnAround::46-47             6      0.03%     99.67% # Writes before turning the bus around for reads
system.mem_ctrls.wrPerTurnAround::48-49            17      0.07%     99.74% # Writes before turning the bus around for reads
system.mem_ctrls.wrPerTurnAround::50-51             4      0.02%     99.76% # Writes before turning the bus around for reads
system.mem_ctrls.wrPerTurnAround::52-53             2      0.01%     99.77% # Writes before turning the bus around for reads
system.mem_ctrls.wrPerTurnAround::54-55             3      0.01%     99.78% # Writes before turning the bus around for reads
system.mem_ctrls.wrPerTurnAround::56-57             1      0.00%     99.79% # Writes before turning the bus around for reads
system.mem_ctrls.wrPerTurnAround::60-61             3      0.01%     99.80% # Writes before turning the bus around for reads
system.mem_ctrls.wrPerTurnAround::62-63             2      0.01%     99.81% # Writes before turning the bus around for reads
system.mem_ctrls.wrPerTurnAround::64-65             4      0.02%     99.83% # Writes before turning the bus around for reads
system.mem_ctrls.wrPerTurnAround::66-67             2      0.01%     99.83% # Writes before turning the bus around for reads
system.mem_ctrls.wrPerTurnAround::68-69             5      0.02%     99.86% # Writes before turning the bus around for reads
system.mem_ctrls.wrPerTurnAround::70-71             2      0.01%     99.86% # Writes before turning the bus around for reads
system.mem_ctrls.wrPerTurnAround::72-73             2      0.01%     99.87% # Writes before turning the bus around for reads
system.mem_ctrls.wrPerTurnAround::74-75             8      0.03%     99.91% # Writes before turning the bus around for reads
system.mem_ctrls.wrPerTurnAround::76-77             1      0.00%     99.91% # Writes before turning the bus around for reads
system.mem_ctrls.wrPerTurnAround::78-79             1      0.00%     99.91% # Writes before turning the bus around for reads
system.mem_ctrls.wrPerTurnAround::80-81             4      0.02%     99.93% # Writes before turning the bus around for reads
system.mem_ctrls.wrPerTurnAround::82-83             1      0.00%     99.94% # Writes before turning the bus around for reads
system.mem_ctrls.wrPerTurnAround::84-85             1      0.00%     99.94% # Writes before turning the bus around for reads
system.mem_ctrls.wrPerTurnAround::86-87             1      0.00%     99.94% # Writes before turning the bus around for reads
system.mem_ctrls.wrPerTurnAround::88-89             1      0.00%     99.95% # Writes before turning the bus around for reads
system.mem_ctrls.wrPerTurnAround::90-91             1      0.00%     99.95% # Writes before turning the bus around for reads
system.mem_ctrls.wrPerTurnAround::92-93             1      0.00%     99.96% # Writes before turning the bus around for reads
system.mem_ctrls.wrPerTurnAround::94-95             2      0.01%     99.97% # Writes before turning the bus around for reads
system.mem_ctrls.wrPerTurnAround::96-97             7      0.03%    100.00% # Writes before turning the bus around for reads
system.mem_ctrls.wrPerTurnAround::100-101            1      0.00%    100.00% # Writes before turning the bus around for reads
system.mem_ctrls.wrPerTurnAround::total         23489                       # Writes before turning the bus around for reads
system.mem_ctrls.totQLat                  19339434340                       # Total ticks spent queuing
system.mem_ctrls.totMemAccLat             41910440590                       # Total ticks spent from burst creation until serviced by the DRAM
system.mem_ctrls.totBusLat                 6018935000                       # Total ticks spent in databus transfers
system.mem_ctrls.avgQLat                     16065.50                       # Average queueing delay per DRAM burst
system.mem_ctrls.avgBusLat                    5000.00                       # Average bus latency per DRAM burst
system.mem_ctrls.avgMemAccLat                34815.50                       # Average memory access latency per DRAM burst
system.mem_ctrls.avgRdBW                        31.12                       # Average DRAM read bandwidth in MiByte/s
system.mem_ctrls.avgWrBW                        10.43                       # Average achieved write bandwidth in MiByte/s
system.mem_ctrls.avgRdBWSys                     15.68                       # Average system read bandwidth in MiByte/s
system.mem_ctrls.avgWrBWSys                      8.37                       # Average system write bandwidth in MiByte/s
system.mem_ctrls.peakBW                      12800.00                       # Theoretical peak bandwidth in MiByte/s
system.mem_ctrls.busUtil                         0.32                       # Data bus utilization in percentage
system.mem_ctrls.busUtilRead                     0.24                       # Data bus utilization in percentage for reads
system.mem_ctrls.busUtilWrite                    0.08                       # Data bus utilization in percentage for writes
system.mem_ctrls.avgRdQLen                       1.00                       # Average read queue length when enqueuing
system.mem_ctrls.avgWrQLen                      25.07                       # Average write queue length when enqueuing
system.mem_ctrls.readRowHits                   950173                       # Number of row buffer hits during reads
system.mem_ctrls.writeRowHits                  337101                       # Number of row buffer hits during writes
system.mem_ctrls.readRowHitRate                 78.93                       # Row buffer hit rate for reads
system.mem_ctrls.writeRowHitRate                83.53                       # Row buffer hit rate for writes
system.mem_ctrls.avgGap                    1330905.00                       # Average gap between requests
system.mem_ctrls.pageHitRate                    80.09                       # Row buffer hit rate, read and write combined
system.mem_ctrls_0.actEnergy                880097820                       # Energy for activate commands per rank (pJ)
system.mem_ctrls_0.preEnergy                467779290                       # Energy for precharge commands per rank (pJ)
system.mem_ctrls_0.readEnergy              3632189400                       # Energy for read commands per rank (pJ)
system.mem_ctrls_0.writeEnergy             1014386940                       # Energy for write commands per rank (pJ)
system.mem_ctrls_0.refreshEnergy         19451512080.000004                       # Energy for refresh commands per rank (pJ)
system.mem_ctrls_0.actBackEnergy          14499938160                       # Energy for active background per rank (pJ)
system.mem_ctrls_0.preBackEnergy            833482560                       # Energy for precharge background per rank (pJ)
system.mem_ctrls_0.actPowerDownEnergy     65162743710                       # Energy for active power-down per rank (pJ)
system.mem_ctrls_0.prePowerDownEnergy     19606030080                       # Energy for precharge power-down per rank (pJ)
system.mem_ctrls_0.selfRefreshEnergy     540801531420                       # Energy for self refresh per rank (pJ)
system.mem_ctrls_0.totalEnergy           666355684500                       # Total energy per rank (pJ)
system.mem_ctrls_0.averagePower            269.190731                       # Core power per rank (mW)
system.mem_ctrls_0.totalIdleTime         2441420531500                       # Total Idle time Per DRAM Rank
system.mem_ctrls_0.memoryStateTime::IDLE   1043707250                       # Time in different power states
system.mem_ctrls_0.memoryStateTime::REF    8244600000                       # Time in different power states
system.mem_ctrls_0.memoryStateTime::SREF 2247463422500                       # Time in different power states
system.mem_ctrls_0.memoryStateTime::PRE_PDN  51057490750                       # Time in different power states
system.mem_ctrls_0.memoryStateTime::ACT   24694304000                       # Time in different power states
system.mem_ctrls_0.memoryStateTime::ACT_PDN 142900003000                       # Time in different power states
system.mem_ctrls_1.actEnergy               1405109160                       # Energy for activate commands per rank (pJ)
system.mem_ctrls_1.preEnergy                746829435                       # Energy for precharge commands per rank (pJ)
system.mem_ctrls_1.readEnergy              4962849780                       # Energy for read commands per rank (pJ)
system.mem_ctrls_1.writeEnergy             1092112740                       # Energy for write commands per rank (pJ)
system.mem_ctrls_1.refreshEnergy         18954268320.000004                       # Energy for refresh commands per rank (pJ)
system.mem_ctrls_1.actBackEnergy          16020189720                       # Energy for active background per rank (pJ)
system.mem_ctrls_1.preBackEnergy            667779840                       # Energy for precharge background per rank (pJ)
system.mem_ctrls_1.actPowerDownEnergy     76633081710                       # Energy for active power-down per rank (pJ)
system.mem_ctrls_1.prePowerDownEnergy     10646031840                       # Energy for precharge power-down per rank (pJ)
system.mem_ctrls_1.selfRefreshEnergy     538829089560                       # Energy for self refresh per rank (pJ)
system.mem_ctrls_1.totalEnergy           669958837215                       # Total energy per rank (pJ)
system.mem_ctrls_1.averagePower            270.646313                       # Core power per rank (mW)
system.mem_ctrls_1.totalIdleTime         2438533833993                       # Total Idle time Per DRAM Rank
system.mem_ctrls_1.memoryStateTime::IDLE    558155250                       # Time in different power states
system.mem_ctrls_1.memoryStateTime::REF    8024894000                       # Time in different power states
system.mem_ctrls_1.memoryStateTime::SREF 2242750156500                       # Time in different power states
system.mem_ctrls_1.memoryStateTime::PRE_PDN  27725704500                       # Time in different power states
system.mem_ctrls_1.memoryStateTime::ACT   28286602507                       # Time in different power states
system.mem_ctrls_1.memoryStateTime::ACT_PDN 168058014743                       # Time in different power states
system.pwrStateResidencyTicks::UNDEFINED 2475403527500                       # Cumulative time (in ticks) in various power states
system.bridge.pwrStateResidencyTicks::UNDEFINED 2475403527500                       # Cumulative time (in ticks) in various power states
system.cpu_voltage_domain.voltage                   1                       # Voltage in Volts
system.cpu_clk_domain.clock                       500                       # Clock period in ticks
system.cpu.dtb.fetch_hits                           0                       # ITB hits
system.cpu.dtb.fetch_misses                         0                       # ITB misses
system.cpu.dtb.fetch_acv                            0                       # ITB acv
system.cpu.dtb.fetch_accesses                       0                       # ITB accesses
system.cpu.dtb.read_hits                     16019458                       # DTB read hits
system.cpu.dtb.read_misses                      12439                       # DTB read misses
system.cpu.dtb.read_acv                            98                       # DTB read access violations
system.cpu.dtb.read_accesses                   817033                       # DTB read accesses
system.cpu.dtb.write_hits                     8869201                       # DTB write hits
system.cpu.dtb.write_misses                      1308                       # DTB write misses
system.cpu.dtb.write_acv                          169                       # DTB write access violations
system.cpu.dtb.write_accesses                  324495                       # DTB write accesses
system.cpu.dtb.data_hits                     24888659                       # DTB hits
system.cpu.dtb.data_misses                      13747                       # DTB misses
system.cpu.dtb.data_acv                           267                       # DTB access violations
system.cpu.dtb.data_accesses                  1141528                       # DTB accesses
system.cpu.itb.fetch_hits                     5657645                       # ITB hits
system.cpu.itb.fetch_misses                      6044                       # ITB misses
system.cpu.itb.fetch_acv                            1                       # ITB acv
system.cpu.itb.fetch_accesses                 5663689                       # ITB accesses
system.cpu.itb.read_hits                            0                       # DTB read hits
system.cpu.itb.read_misses                          0                       # DTB read misses
system.cpu.itb.read_acv                             0                       # DTB read access violations
system.cpu.itb.read_accesses                        0                       # DTB read accesses
system.cpu.itb.write_hits                           0                       # DTB write hits
system.cpu.itb.write_misses                         0                       # DTB write misses
system.cpu.itb.write_acv                            0                       # DTB write access violations
system.cpu.itb.write_accesses                       0                       # DTB write accesses
system.cpu.itb.data_hits                            0                       # DTB hits
system.cpu.itb.data_misses                          0                       # DTB misses
system.cpu.itb.data_acv                             0                       # DTB access violations
system.cpu.itb.data_accesses                        0                       # DTB accesses
system.cpu.numPwrStateTransitions               14334                       # Number of power state transitions
system.cpu.pwrStateClkGateDist::samples          7167                       # Distribution of time spent in the clock gated state
system.cpu.pwrStateClkGateDist::mean     306732945.723455                       # Distribution of time spent in the clock gated state
system.cpu.pwrStateClkGateDist::stdev    450346012.465931                       # Distribution of time spent in the clock gated state
system.cpu.pwrStateClkGateDist::1000-5e+10         7167    100.00%    100.00% # Distribution of time spent in the clock gated state
system.cpu.pwrStateClkGateDist::min_value        97000                       # Distribution of time spent in the clock gated state
system.cpu.pwrStateClkGateDist::max_value   2000000000                       # Distribution of time spent in the clock gated state
system.cpu.pwrStateClkGateDist::total            7167                       # Distribution of time spent in the clock gated state
system.cpu.pwrStateResidencyTicks::ON    277048505500                       # Cumulative time (in ticks) in various power states
system.cpu.pwrStateResidencyTicks::CLK_GATED 2198355022000                       # Cumulative time (in ticks) in various power states
system.cpu.numCycles                       4950807055                       # number of cpu cycles simulated
system.cpu.numWorkItemsStarted                      0                       # number of work items this cpu started
system.cpu.numWorkItemsCompleted                    0                       # number of work items this cpu completed
system.cpu.kern.inst.arm                            0                       # number of arm instructions executed
system.cpu.kern.inst.quiesce                     7167                       # number of quiesce instructions executed
system.cpu.kern.callpal::cserve                     1      0.00%      0.00% # number of callpals executed
system.cpu.kern.callpal::wrmces                     1      0.00%      0.00% # number of callpals executed
system.cpu.kern.callpal::wrfen                      1      0.00%      0.00% # number of callpals executed
system.cpu.kern.callpal::wrvptptr                   1      0.00%      0.00% # number of callpals executed
system.cpu.kern.callpal::swpctx                  4513      2.11%      2.11% # number of callpals executed
system.cpu.kern.callpal::tbi                       65      0.03%      2.14% # number of callpals executed
system.cpu.kern.callpal::wrent                      7      0.00%      2.14% # number of callpals executed
system.cpu.kern.callpal::swpipl                196838     91.90%     94.04% # number of callpals executed
system.cpu.kern.callpal::rdps                    5849      2.73%     96.77% # number of callpals executed
system.cpu.kern.callpal::wrkgp                      1      0.00%     96.77% # number of callpals executed
system.cpu.kern.callpal::wrusp                      8      0.00%     96.78% # number of callpals executed
system.cpu.kern.callpal::rdusp                     10      0.00%     96.78% # number of callpals executed
system.cpu.kern.callpal::whami                      2      0.00%     96.78% # number of callpals executed
system.cpu.kern.callpal::rti                     6095      2.85%     99.63% # number of callpals executed
system.cpu.kern.callpal::callsys                  559      0.26%     99.89% # number of callpals executed
system.cpu.kern.callpal::imb                      235      0.11%    100.00% # number of callpals executed
system.cpu.kern.callpal::total                 214186                       # number of callpals executed
system.cpu.kern.inst.hwrei                     236858                       # number of hwrei instructions executed
system.cpu.kern.mode_switch::kernel              6781                       # number of protection mode switches
system.cpu.kern.mode_switch::user                1967                       # number of protection mode switches
system.cpu.kern.mode_switch::idle                2333                       # number of protection mode switches
system.cpu.kern.mode_good::kernel                2042                      
system.cpu.kern.mode_good::user                  1967                      
system.cpu.kern.mode_good::idle                    75                      
system.cpu.kern.mode_switch_good::kernel     0.301136                       # fraction of useful protection mode switches
system.cpu.kern.mode_switch_good::user              1                       # fraction of useful protection mode switches
system.cpu.kern.mode_switch_good::idle       0.032147                       # fraction of useful protection mode switches
system.cpu.kern.mode_switch_good::total      0.368559                       # fraction of useful protection mode switches
system.cpu.kern.mode_ticks::kernel       211691128500      8.55%      8.55% # number of ticks spent at the given mode
system.cpu.kern.mode_ticks::user           9639606000      0.39%      8.94% # number of ticks spent at the given mode
system.cpu.kern.mode_ticks::idle         2254069021000     91.06%    100.00% # number of ticks spent at the given mode
system.cpu.kern.swap_context                     4514                       # number of times the context was actually changed
system.cpu.kern.ipl_count::0                    82586     40.18%     40.18% # number of times we switched to this ipl
system.cpu.kern.ipl_count::21                     117      0.06%     40.24% # number of times we switched to this ipl
system.cpu.kern.ipl_count::22                    2494      1.21%     41.45% # number of times we switched to this ipl
system.cpu.kern.ipl_count::31                  120348     58.55%    100.00% # number of times we switched to this ipl
system.cpu.kern.ipl_count::total               205545                       # number of times we switched to this ipl
system.cpu.kern.ipl_good::0                     81049     49.21%     49.21% # number of times we switched to this ipl from a different ipl
system.cpu.kern.ipl_good::21                      117      0.07%     49.28% # number of times we switched to this ipl from a different ipl
system.cpu.kern.ipl_good::22                     2494      1.51%     50.79% # number of times we switched to this ipl from a different ipl
system.cpu.kern.ipl_good::31                    81049     49.21%    100.00% # number of times we switched to this ipl from a different ipl
system.cpu.kern.ipl_good::total                164709                       # number of times we switched to this ipl from a different ipl
system.cpu.kern.ipl_ticks::0             2383491638000     96.29%     96.29% # number of cycles we spent at this ipl
system.cpu.kern.ipl_ticks::21               106149500      0.00%     96.29% # number of cycles we spent at this ipl
system.cpu.kern.ipl_ticks::22              1171770500      0.05%     96.34% # number of cycles we spent at this ipl
system.cpu.kern.ipl_ticks::31             90630199500      3.66%    100.00% # number of cycles we spent at this ipl
system.cpu.kern.ipl_ticks::total         2475399757500                       # number of cycles we spent at this ipl
system.cpu.kern.ipl_used::0                  0.981389                       # fraction of swpipl calls that actually changed the ipl
system.cpu.kern.ipl_used::21                        1                       # fraction of swpipl calls that actually changed the ipl
system.cpu.kern.ipl_used::22                        1                       # fraction of swpipl calls that actually changed the ipl
system.cpu.kern.ipl_used::31                 0.673455                       # fraction of swpipl calls that actually changed the ipl
system.cpu.kern.ipl_used::total              0.801328                       # fraction of swpipl calls that actually changed the ipl
system.cpu.committedInsts                    91578436                       # Number of instructions committed
system.cpu.committedOps                      91578436                       # Number of ops (including micro ops) committed
system.cpu.num_int_alu_accesses              88580437                       # Number of integer alu accesses
system.cpu.num_fp_alu_accesses                 426653                       # Number of float alu accesses
system.cpu.num_vec_alu_accesses                     0                       # Number of vector alu accesses
system.cpu.num_func_calls                     2912354                       # number of times a function call or return occured
system.cpu.num_conditional_control_insts     11613717                       # number of instructions that are conditional controls
system.cpu.num_int_insts                     88580437                       # number of integer instructions
system.cpu.num_fp_insts                        426653                       # number of float instructions
system.cpu.num_vec_insts                            0                       # number of vector instructions
system.cpu.num_int_register_reads           121001735                       # number of times the integer registers were read
system.cpu.num_int_register_writes           66890481                       # number of times the integer registers were written
system.cpu.num_fp_register_reads               177950                       # number of times the floating registers were read
system.cpu.num_fp_register_writes              180949                       # number of times the floating registers were written
system.cpu.num_vec_register_reads                   0                       # number of times the vector registers were read
system.cpu.num_vec_register_writes                  0                       # number of times the vector registers were written
system.cpu.num_mem_refs                      24947570                       # number of memory refs
system.cpu.num_load_insts                    16060857                       # Number of load instructions
system.cpu.num_store_insts                    8886713                       # Number of store instructions
system.cpu.num_idle_cycles               4396710043.998224                       # Number of idle cycles
system.cpu.num_busy_cycles               554097011.001776                       # Number of busy cycles
system.cpu.not_idle_fraction                 0.111921                       # Percentage of non-idle cycles
system.cpu.idle_fraction                     0.888079                       # Percentage of idle cycles
system.cpu.Branches                          15137968                       # Number of branches fetched
system.cpu.op_class::No_OpClass               1594899      1.74%      1.74% # Class of executed instruction
system.cpu.op_class::IntAlu                  63131538     68.93%     70.67% # Class of executed instruction
system.cpu.op_class::IntMult                   185911      0.20%     70.87% # Class of executed instruction
system.cpu.op_class::IntDiv                         0      0.00%     70.87% # Class of executed instruction
system.cpu.op_class::FloatAdd                  117432      0.13%     71.00% # Class of executed instruction
system.cpu.op_class::FloatCmp                       0      0.00%     71.00% # Class of executed instruction
system.cpu.op_class::FloatCvt                       0      0.00%     71.00% # Class of executed instruction
system.cpu.op_class::FloatMult                      0      0.00%     71.00% # Class of executed instruction
system.cpu.op_class::FloatMultAcc                   0      0.00%     71.00% # Class of executed instruction
system.cpu.op_class::FloatDiv                    4179      0.00%     71.00% # Class of executed instruction
system.cpu.op_class::FloatMisc                      0      0.00%     71.00% # Class of executed instruction
system.cpu.op_class::FloatSqrt                      0      0.00%     71.00% # Class of executed instruction
system.cpu.op_class::SimdAdd                        0      0.00%     71.00% # Class of executed instruction
system.cpu.op_class::SimdAddAcc                     0      0.00%     71.00% # Class of executed instruction
system.cpu.op_class::SimdAlu                        0      0.00%     71.00% # Class of executed instruction
system.cpu.op_class::SimdCmp                        0      0.00%     71.00% # Class of executed instruction
system.cpu.op_class::SimdCvt                        0      0.00%     71.00% # Class of executed instruction
system.cpu.op_class::SimdMisc                       0      0.00%     71.00% # Class of executed instruction
system.cpu.op_class::SimdMult                       0      0.00%     71.00% # Class of executed instruction
system.cpu.op_class::SimdMultAcc                    0      0.00%     71.00% # Class of executed instruction
system.cpu.op_class::SimdShift                      0      0.00%     71.00% # Class of executed instruction
system.cpu.op_class::SimdShiftAcc                   0      0.00%     71.00% # Class of executed instruction
system.cpu.op_class::SimdSqrt                       0      0.00%     71.00% # Class of executed instruction
system.cpu.op_class::SimdFloatAdd                   0      0.00%     71.00% # Class of executed instruction
system.cpu.op_class::SimdFloatAlu                   0      0.00%     71.00% # Class of executed instruction
system.cpu.op_class::SimdFloatCmp                   0      0.00%     71.00% # Class of executed instruction
system.cpu.op_class::SimdFloatCvt                   0      0.00%     71.00% # Class of executed instruction
system.cpu.op_class::SimdFloatDiv                   0      0.00%     71.00% # Class of executed instruction
system.cpu.op_class::SimdFloatMisc                  0      0.00%     71.00% # Class of executed instruction
system.cpu.op_class::SimdFloatMult                  0      0.00%     71.00% # Class of executed instruction
system.cpu.op_class::SimdFloatMultAcc               0      0.00%     71.00% # Class of executed instruction
system.cpu.op_class::SimdFloatSqrt                  0      0.00%     71.00% # Class of executed instruction
system.cpu.op_class::MemRead                 16360854     17.86%     88.87% # Class of executed instruction
system.cpu.op_class::MemWrite                 8811948      9.62%     98.49% # Class of executed instruction
system.cpu.op_class::FloatMemRead              156114      0.17%     98.66% # Class of executed instruction
system.cpu.op_class::FloatMemWrite             148928      0.16%     98.82% # Class of executed instruction
system.cpu.op_class::IprAccess                1080647      1.18%    100.00% # Class of executed instruction
system.cpu.op_class::InstPrefetch                   0      0.00%    100.00% # Class of executed instruction
system.cpu.op_class::total                   91592450                       # Class of executed instruction
system.cpu.dcache.tags.pwrStateResidencyTicks::UNDEFINED 2475403527500                       # Cumulative time (in ticks) in various power states
system.cpu.dcache.tags.replacements           2982455                       # number of replacements
system.cpu.dcache.tags.tagsinuse          1023.952766                       # Cycle average of tags in use
system.cpu.dcache.tags.total_refs            21896978                       # Total number of references to valid blocks.
system.cpu.dcache.tags.sampled_refs           2982455                       # Sample count of references to valid blocks.
system.cpu.dcache.tags.avg_refs              7.341931                       # Average number of references to valid blocks.
system.cpu.dcache.tags.warmup_cycle         168190500                       # Cycle when the warmup percentage was hit.
system.cpu.dcache.tags.occ_blocks::cpu.data  1023.952766                       # Average occupied blocks per requestor
system.cpu.dcache.tags.occ_percent::cpu.data     0.999954                       # Average percentage of cache occupancy
system.cpu.dcache.tags.occ_percent::total     0.999954                       # Average percentage of cache occupancy
system.cpu.dcache.tags.occ_task_id_blocks::1024         1024                       # Occupied blocks per task id
system.cpu.dcache.tags.age_task_id_blocks_1024::0           69                       # Occupied blocks per task id
system.cpu.dcache.tags.age_task_id_blocks_1024::1          818                       # Occupied blocks per task id
system.cpu.dcache.tags.age_task_id_blocks_1024::2          113                       # Occupied blocks per task id
system.cpu.dcache.tags.age_task_id_blocks_1024::3           24                       # Occupied blocks per task id
system.cpu.dcache.tags.occ_task_id_percent::1024            1                       # Percentage of cache occupancy per task id
system.cpu.dcache.tags.tag_accesses         800105057                       # Number of tag accesses
system.cpu.dcache.tags.data_accesses        800105057                       # Number of data accesses
system.cpu.dcache.pwrStateResidencyTicks::UNDEFINED 2475403527500                       # Cumulative time (in ticks) in various power states
system.cpu.dcache.ReadReq_hits::cpu.data     13576999                       # number of ReadReq hits
system.cpu.dcache.ReadReq_hits::total        13576999                       # number of ReadReq hits
system.cpu.dcache.WriteReq_hits::cpu.data      7741544                       # number of WriteReq hits
system.cpu.dcache.WriteReq_hits::total        7741544                       # number of WriteReq hits
system.cpu.dcache.LoadLockedReq_hits::cpu.data       292666                       # number of LoadLockedReq hits
system.cpu.dcache.LoadLockedReq_hits::total       292666                       # number of LoadLockedReq hits
system.cpu.dcache.StoreCondReq_hits::cpu.data       315300                       # number of StoreCondReq hits
system.cpu.dcache.StoreCondReq_hits::total       315300                       # number of StoreCondReq hits
system.cpu.dcache.demand_hits::cpu.data      21318543                       # number of demand (read+write) hits
system.cpu.dcache.demand_hits::total         21318543                       # number of demand (read+write) hits
system.cpu.dcache.overall_hits::cpu.data     21318543                       # number of overall hits
system.cpu.dcache.overall_hits::total        21318543                       # number of overall hits
system.cpu.dcache.ReadReq_misses::cpu.data      2147878                       # number of ReadReq misses
system.cpu.dcache.ReadReq_misses::total       2147878                       # number of ReadReq misses
system.cpu.dcache.WriteReq_misses::cpu.data       811941                       # number of WriteReq misses
system.cpu.dcache.WriteReq_misses::total       811941                       # number of WriteReq misses
system.cpu.dcache.LoadLockedReq_misses::cpu.data        23721                       # number of LoadLockedReq misses
system.cpu.dcache.LoadLockedReq_misses::total        23721                       # number of LoadLockedReq misses
system.cpu.dcache.demand_misses::cpu.data      2959819                       # number of demand (read+write) misses
system.cpu.dcache.demand_misses::total        2959819                       # number of demand (read+write) misses
system.cpu.dcache.overall_misses::cpu.data      2959819                       # number of overall misses
system.cpu.dcache.overall_misses::total       2959819                       # number of overall misses
system.cpu.dcache.ReadReq_miss_latency::cpu.data  66918454000                       # number of ReadReq miss cycles
system.cpu.dcache.ReadReq_miss_latency::total  66918454000                       # number of ReadReq miss cycles
system.cpu.dcache.WriteReq_miss_latency::cpu.data  44792160500                       # number of WriteReq miss cycles
system.cpu.dcache.WriteReq_miss_latency::total  44792160500                       # number of WriteReq miss cycles
system.cpu.dcache.LoadLockedReq_miss_latency::cpu.data    676335000                       # number of LoadLockedReq miss cycles
system.cpu.dcache.LoadLockedReq_miss_latency::total    676335000                       # number of LoadLockedReq miss cycles
system.cpu.dcache.demand_miss_latency::cpu.data 111710614500                       # number of demand (read+write) miss cycles
system.cpu.dcache.demand_miss_latency::total 111710614500                       # number of demand (read+write) miss cycles
system.cpu.dcache.overall_miss_latency::cpu.data 111710614500                       # number of overall miss cycles
system.cpu.dcache.overall_miss_latency::total 111710614500                       # number of overall miss cycles
system.cpu.dcache.ReadReq_accesses::cpu.data     15724877                       # number of ReadReq accesses(hits+misses)
system.cpu.dcache.ReadReq_accesses::total     15724877                       # number of ReadReq accesses(hits+misses)
system.cpu.dcache.WriteReq_accesses::cpu.data      8553485                       # number of WriteReq accesses(hits+misses)
system.cpu.dcache.WriteReq_accesses::total      8553485                       # number of WriteReq accesses(hits+misses)
system.cpu.dcache.LoadLockedReq_accesses::cpu.data       316387                       # number of LoadLockedReq accesses(hits+misses)
system.cpu.dcache.LoadLockedReq_accesses::total       316387                       # number of LoadLockedReq accesses(hits+misses)
system.cpu.dcache.StoreCondReq_accesses::cpu.data       315300                       # number of StoreCondReq accesses(hits+misses)
system.cpu.dcache.StoreCondReq_accesses::total       315300                       # number of StoreCondReq accesses(hits+misses)
system.cpu.dcache.demand_accesses::cpu.data     24278362                       # number of demand (read+write) accesses
system.cpu.dcache.demand_accesses::total     24278362                       # number of demand (read+write) accesses
system.cpu.dcache.overall_accesses::cpu.data     24278362                       # number of overall (read+write) accesses
system.cpu.dcache.overall_accesses::total     24278362                       # number of overall (read+write) accesses
system.cpu.dcache.ReadReq_miss_rate::cpu.data     0.136591                       # miss rate for ReadReq accesses
system.cpu.dcache.ReadReq_miss_rate::total     0.136591                       # miss rate for ReadReq accesses
system.cpu.dcache.WriteReq_miss_rate::cpu.data     0.094925                       # miss rate for WriteReq accesses
system.cpu.dcache.WriteReq_miss_rate::total     0.094925                       # miss rate for WriteReq accesses
system.cpu.dcache.LoadLockedReq_miss_rate::cpu.data     0.074975                       # miss rate for LoadLockedReq accesses
system.cpu.dcache.LoadLockedReq_miss_rate::total     0.074975                       # miss rate for LoadLockedReq accesses
system.cpu.dcache.demand_miss_rate::cpu.data     0.121912                       # miss rate for demand accesses
system.cpu.dcache.demand_miss_rate::total     0.121912                       # miss rate for demand accesses
system.cpu.dcache.overall_miss_rate::cpu.data     0.121912                       # miss rate for overall accesses
system.cpu.dcache.overall_miss_rate::total     0.121912                       # miss rate for overall accesses
system.cpu.dcache.ReadReq_avg_miss_latency::cpu.data 31155.612190                       # average ReadReq miss latency
system.cpu.dcache.ReadReq_avg_miss_latency::total 31155.612190                       # average ReadReq miss latency
system.cpu.dcache.WriteReq_avg_miss_latency::cpu.data 55166.767659                       # average WriteReq miss latency
system.cpu.dcache.WriteReq_avg_miss_latency::total 55166.767659                       # average WriteReq miss latency
system.cpu.dcache.LoadLockedReq_avg_miss_latency::cpu.data 28512.077906                       # average LoadLockedReq miss latency
system.cpu.dcache.LoadLockedReq_avg_miss_latency::total 28512.077906                       # average LoadLockedReq miss latency
system.cpu.dcache.demand_avg_miss_latency::cpu.data 37742.380362                       # average overall miss latency
system.cpu.dcache.demand_avg_miss_latency::total 37742.380362                       # average overall miss latency
system.cpu.dcache.overall_avg_miss_latency::cpu.data 37742.380362                       # average overall miss latency
system.cpu.dcache.overall_avg_miss_latency::total 37742.380362                       # average overall miss latency
system.cpu.dcache.blocked_cycles::no_mshrs            0                       # number of cycles access was blocked
system.cpu.dcache.blocked_cycles::no_targets            0                       # number of cycles access was blocked
system.cpu.dcache.blocked::no_mshrs                 0                       # number of cycles access was blocked
system.cpu.dcache.blocked::no_targets               0                       # number of cycles access was blocked
system.cpu.dcache.avg_blocked_cycles::no_mshrs          nan                       # average number of cycles each access was blocked
system.cpu.dcache.avg_blocked_cycles::no_targets          nan                       # average number of cycles each access was blocked
system.cpu.dcache.writebacks::writebacks      2089841                       # number of writebacks
system.cpu.dcache.writebacks::total           2089841                       # number of writebacks
system.cpu.dcache.ReadReq_mshr_misses::cpu.data      2147878                       # number of ReadReq MSHR misses
system.cpu.dcache.ReadReq_mshr_misses::total      2147878                       # number of ReadReq MSHR misses
system.cpu.dcache.WriteReq_mshr_misses::cpu.data       811941                       # number of WriteReq MSHR misses
system.cpu.dcache.WriteReq_mshr_misses::total       811941                       # number of WriteReq MSHR misses
system.cpu.dcache.LoadLockedReq_mshr_misses::cpu.data        23721                       # number of LoadLockedReq MSHR misses
system.cpu.dcache.LoadLockedReq_mshr_misses::total        23721                       # number of LoadLockedReq MSHR misses
system.cpu.dcache.demand_mshr_misses::cpu.data      2959819                       # number of demand (read+write) MSHR misses
system.cpu.dcache.demand_mshr_misses::total      2959819                       # number of demand (read+write) MSHR misses
system.cpu.dcache.overall_mshr_misses::cpu.data      2959819                       # number of overall MSHR misses
system.cpu.dcache.overall_mshr_misses::total      2959819                       # number of overall MSHR misses
system.cpu.dcache.ReadReq_mshr_uncacheable::cpu.data         7056                       # number of ReadReq MSHR uncacheable
system.cpu.dcache.ReadReq_mshr_uncacheable::total         7056                       # number of ReadReq MSHR uncacheable
system.cpu.dcache.WriteReq_mshr_uncacheable::cpu.data        10355                       # number of WriteReq MSHR uncacheable
system.cpu.dcache.WriteReq_mshr_uncacheable::total        10355                       # number of WriteReq MSHR uncacheable
system.cpu.dcache.overall_mshr_uncacheable_misses::cpu.data        17411                       # number of overall MSHR uncacheable misses
system.cpu.dcache.overall_mshr_uncacheable_misses::total        17411                       # number of overall MSHR uncacheable misses
system.cpu.dcache.ReadReq_mshr_miss_latency::cpu.data  64770576000                       # number of ReadReq MSHR miss cycles
system.cpu.dcache.ReadReq_mshr_miss_latency::total  64770576000                       # number of ReadReq MSHR miss cycles
system.cpu.dcache.WriteReq_mshr_miss_latency::cpu.data  43980219500                       # number of WriteReq MSHR miss cycles
system.cpu.dcache.WriteReq_mshr_miss_latency::total  43980219500                       # number of WriteReq MSHR miss cycles
system.cpu.dcache.LoadLockedReq_mshr_miss_latency::cpu.data    652614000                       # number of LoadLockedReq MSHR miss cycles
system.cpu.dcache.LoadLockedReq_mshr_miss_latency::total    652614000                       # number of LoadLockedReq MSHR miss cycles
system.cpu.dcache.demand_mshr_miss_latency::cpu.data 108750795500                       # number of demand (read+write) MSHR miss cycles
system.cpu.dcache.demand_mshr_miss_latency::total 108750795500                       # number of demand (read+write) MSHR miss cycles
system.cpu.dcache.overall_mshr_miss_latency::cpu.data 108750795500                       # number of overall MSHR miss cycles
system.cpu.dcache.overall_mshr_miss_latency::total 108750795500                       # number of overall MSHR miss cycles
system.cpu.dcache.ReadReq_mshr_uncacheable_latency::cpu.data   1566127500                       # number of ReadReq MSHR uncacheable cycles
system.cpu.dcache.ReadReq_mshr_uncacheable_latency::total   1566127500                       # number of ReadReq MSHR uncacheable cycles
system.cpu.dcache.overall_mshr_uncacheable_latency::cpu.data   1566127500                       # number of overall MSHR uncacheable cycles
system.cpu.dcache.overall_mshr_uncacheable_latency::total   1566127500                       # number of overall MSHR uncacheable cycles
system.cpu.dcache.ReadReq_mshr_miss_rate::cpu.data     0.136591                       # mshr miss rate for ReadReq accesses
system.cpu.dcache.ReadReq_mshr_miss_rate::total     0.136591                       # mshr miss rate for ReadReq accesses
system.cpu.dcache.WriteReq_mshr_miss_rate::cpu.data     0.094925                       # mshr miss rate for WriteReq accesses
system.cpu.dcache.WriteReq_mshr_miss_rate::total     0.094925                       # mshr miss rate for WriteReq accesses
system.cpu.dcache.LoadLockedReq_mshr_miss_rate::cpu.data     0.074975                       # mshr miss rate for LoadLockedReq accesses
system.cpu.dcache.LoadLockedReq_mshr_miss_rate::total     0.074975                       # mshr miss rate for LoadLockedReq accesses
system.cpu.dcache.demand_mshr_miss_rate::cpu.data     0.121912                       # mshr miss rate for demand accesses
system.cpu.dcache.demand_mshr_miss_rate::total     0.121912                       # mshr miss rate for demand accesses
system.cpu.dcache.overall_mshr_miss_rate::cpu.data     0.121912                       # mshr miss rate for overall accesses
system.cpu.dcache.overall_mshr_miss_rate::total     0.121912                       # mshr miss rate for overall accesses
system.cpu.dcache.ReadReq_avg_mshr_miss_latency::cpu.data 30155.612190                       # average ReadReq mshr miss latency
system.cpu.dcache.ReadReq_avg_mshr_miss_latency::total 30155.612190                       # average ReadReq mshr miss latency
system.cpu.dcache.WriteReq_avg_mshr_miss_latency::cpu.data 54166.767659                       # average WriteReq mshr miss latency
system.cpu.dcache.WriteReq_avg_mshr_miss_latency::total 54166.767659                       # average WriteReq mshr miss latency
system.cpu.dcache.LoadLockedReq_avg_mshr_miss_latency::cpu.data 27512.077906                       # average LoadLockedReq mshr miss latency
system.cpu.dcache.LoadLockedReq_avg_mshr_miss_latency::total 27512.077906                       # average LoadLockedReq mshr miss latency
system.cpu.dcache.demand_avg_mshr_miss_latency::cpu.data 36742.380362                       # average overall mshr miss latency
system.cpu.dcache.demand_avg_mshr_miss_latency::total 36742.380362                       # average overall mshr miss latency
system.cpu.dcache.overall_avg_mshr_miss_latency::cpu.data 36742.380362                       # average overall mshr miss latency
system.cpu.dcache.overall_avg_mshr_miss_latency::total 36742.380362                       # average overall mshr miss latency
system.cpu.dcache.ReadReq_avg_mshr_uncacheable_latency::cpu.data 221956.845238                       # average ReadReq mshr uncacheable latency
system.cpu.dcache.ReadReq_avg_mshr_uncacheable_latency::total 221956.845238                       # average ReadReq mshr uncacheable latency
system.cpu.dcache.overall_avg_mshr_uncacheable_latency::cpu.data 89950.462351                       # average overall mshr uncacheable latency
system.cpu.dcache.overall_avg_mshr_uncacheable_latency::total 89950.462351                       # average overall mshr uncacheable latency
system.cpu.icache.tags.pwrStateResidencyTicks::UNDEFINED 2475403527500                       # Cumulative time (in ticks) in various power states
system.cpu.icache.tags.replacements           2506234                       # number of replacements
system.cpu.icache.tags.tagsinuse           511.178740                       # Cycle average of tags in use
system.cpu.icache.tags.total_refs            88973423                       # Total number of references to valid blocks.
system.cpu.icache.tags.sampled_refs           2506234                       # Sample count of references to valid blocks.
system.cpu.icache.tags.avg_refs             35.500844                       # Average number of references to valid blocks.
system.cpu.icache.tags.warmup_cycle       39828945500                       # Cycle when the warmup percentage was hit.
system.cpu.icache.tags.occ_blocks::cpu.inst   511.178740                       # Average occupied blocks per requestor
system.cpu.icache.tags.occ_percent::cpu.inst     0.998396                       # Average percentage of cache occupancy
system.cpu.icache.tags.occ_percent::total     0.998396                       # Average percentage of cache occupancy
system.cpu.icache.tags.occ_task_id_blocks::1024          512                       # Occupied blocks per task id
system.cpu.icache.tags.age_task_id_blocks_1024::0          107                       # Occupied blocks per task id
system.cpu.icache.tags.age_task_id_blocks_1024::1           56                       # Occupied blocks per task id
system.cpu.icache.tags.age_task_id_blocks_1024::2          251                       # Occupied blocks per task id
system.cpu.icache.tags.age_task_id_blocks_1024::3           98                       # Occupied blocks per task id
system.cpu.icache.tags.occ_task_id_percent::1024            1                       # Percentage of cache occupancy per task id
system.cpu.icache.tags.tag_accesses         185691863                       # Number of tag accesses
system.cpu.icache.tags.data_accesses        185691863                       # Number of data accesses
system.cpu.icache.pwrStateResidencyTicks::UNDEFINED 2475403527500                       # Cumulative time (in ticks) in various power states
system.cpu.icache.ReadReq_hits::cpu.inst     89085490                       # number of ReadReq hits
system.cpu.icache.ReadReq_hits::total        89085490                       # number of ReadReq hits
system.cpu.icache.demand_hits::cpu.inst      89085490                       # number of demand (read+write) hits
system.cpu.icache.demand_hits::total         89085490                       # number of demand (read+write) hits
system.cpu.icache.overall_hits::cpu.inst     89085490                       # number of overall hits
system.cpu.icache.overall_hits::total        89085490                       # number of overall hits
system.cpu.icache.ReadReq_misses::cpu.inst      2506961                       # number of ReadReq misses
system.cpu.icache.ReadReq_misses::total       2506961                       # number of ReadReq misses
system.cpu.icache.demand_misses::cpu.inst      2506961                       # number of demand (read+write) misses
system.cpu.icache.demand_misses::total        2506961                       # number of demand (read+write) misses
system.cpu.icache.overall_misses::cpu.inst      2506961                       # number of overall misses
system.cpu.icache.overall_misses::total       2506961                       # number of overall misses
system.cpu.icache.ReadReq_miss_latency::cpu.inst  49693434000                       # number of ReadReq miss cycles
system.cpu.icache.ReadReq_miss_latency::total  49693434000                       # number of ReadReq miss cycles
system.cpu.icache.demand_miss_latency::cpu.inst  49693434000                       # number of demand (read+write) miss cycles
system.cpu.icache.demand_miss_latency::total  49693434000                       # number of demand (read+write) miss cycles
system.cpu.icache.overall_miss_latency::cpu.inst  49693434000                       # number of overall miss cycles
system.cpu.icache.overall_miss_latency::total  49693434000                       # number of overall miss cycles
system.cpu.icache.ReadReq_accesses::cpu.inst     91592451                       # number of ReadReq accesses(hits+misses)
system.cpu.icache.ReadReq_accesses::total     91592451                       # number of ReadReq accesses(hits+misses)
system.cpu.icache.demand_accesses::cpu.inst     91592451                       # number of demand (read+write) accesses
system.cpu.icache.demand_accesses::total     91592451                       # number of demand (read+write) accesses
[...]
system.l2.overall_avg_mshr_uncacheable_latency::total 120297.486034                       # average overall mshr uncacheable latency
system.membus.snoop_filter.tot_requests        112489                       # Total number of requests made to the snoop filter.
system.membus.snoop_filter.hit_single_requests        61322                       # Number of requests hitting in the snoop filter with a single holder of the requested data.
system.membus.snoop_filter.hit_multi_requests           29                       # Number of requests hitting in the snoop filter with multiple (>1) holders of the requested data.
system.membus.snoop_filter.tot_snoops               0                       # Total number of snoops made to the snoop filter.
system.membus.snoop_filter.hit_single_snoops            0                       # Number of snoops hitting in the snoop filter with a single holder of the requested data.
system.membus.snoop_filter.hit_multi_snoops            0                       # Number of snoops hitting in the snoop filter with multiple (>1) holders of the requested data.
system.membus.pwrStateResidencyTicks::UNDEFINED   6652347000                       # Cumulative time (in ticks) in various power states
system.membus.trans_dist::ReadReq                 610                       # Transaction distribution
system.membus.trans_dist::ReadResp              19830                       # Transaction distribution
system.membus.trans_dist::WriteReq                464                       # Transaction distribution
system.membus.trans_dist::WriteResp               464                       # Transaction distribution
system.membus.trans_dist::WritebackDirty        37198                       # Transaction distribution
system.membus.trans_dist::CleanEvict            17033                       # Transaction distribution
system.membus.trans_dist::UpgradeReq               15                       # Transaction distribution
system.membus.trans_dist::ReadExReq             16365                       # Transaction distribution
system.membus.trans_dist::ReadExResp            16365                       # Transaction distribution
system.membus.trans_dist::ReadSharedReq         19220                       # Transaction distribution
system.membus.trans_dist::InvalidateReq         22656                       # Transaction distribution
system.membus.trans_dist::InvalidateResp         7070                       # Transaction distribution
system.membus.pkt_count_system.iocache.mem_side::system.mem_ctrls.port        45366                       # Packet count per connected master and slave (bytes)
system.membus.pkt_count_system.iocache.mem_side::total        45366                       # Packet count per connected master and slave (bytes)
system.membus.pkt_count_system.l2.mem_side::system.bridge.slave         2148                       # Packet count per connected master and slave (bytes)
system.membus.pkt_count_system.l2.mem_side::system.mem_ctrls.port       102679                       # Packet count per connected master and slave (bytes)
system.membus.pkt_count_system.l2.mem_side::total       104827                       # Packet count per connected master and slave (bytes)
system.membus.pkt_count::total                 150193                       # Packet count per connected master and slave (bytes)
system.membus.pkt_size_system.iocache.mem_side::system.mem_ctrls.port       724992                       # Cumulative packet size per connected master and slave (bytes)
system.membus.pkt_size_system.iocache.mem_side::total       724992                       # Cumulative packet size per connected master and slave (bytes)
system.membus.pkt_size_system.l2.mem_side::system.bridge.slave         1735                       # Cumulative packet size per connected master and slave (bytes)
system.membus.pkt_size_system.l2.mem_side::system.mem_ctrls.port      1603200                       # Cumulative packet size per connected master and slave (bytes)
system.membus.pkt_size_system.l2.mem_side::total      1604935                       # Cumulative packet size per connected master and slave (bytes)
system.membus.pkt_size::total                 2329927                       # Cumulative packet size per connected master and slave (bytes)
system.membus.snoops                             7097                       # Total snoops (count)
system.membus.snoopTraffic                        864                       # Total snoop traffic (bytes)
system.membus.snoop_fanout::samples             59330                       # Request fanout histogram
system.membus.snoop_fanout::mean             0.119653                       # Request fanout histogram
system.membus.snoop_fanout::stdev            0.324558                       # Request fanout histogram
system.membus.snoop_fanout::underflows              0      0.00%      0.00% # Request fanout histogram
system.membus.snoop_fanout::0                   52231     88.03%     88.03% # Request fanout histogram
system.membus.snoop_fanout::1                    7099     11.97%    100.00% # Request fanout histogram
system.membus.snoop_fanout::2                       0      0.00%    100.00% # Request fanout histogram
system.membus.snoop_fanout::overflows               0      0.00%    100.00% # Request fanout histogram
system.membus.snoop_fanout::min_value               0                       # Request fanout histogram
system.membus.snoop_fanout::max_value               1                       # Request fanout histogram
system.membus.snoop_fanout::total               59330                       # Request fanout histogram
system.membus.reqLayer0.occupancy             1816500                       # Layer occupancy (ticks)
system.membus.reqLayer0.utilization               0.0                       # Layer utilization (%)
system.membus.reqLayer1.occupancy           186932293                       # Layer occupancy (ticks)
system.membus.reqLayer1.utilization               2.8                       # Layer utilization (%)
system.membus.respLayer1.occupancy            7436813                       # Layer occupancy (ticks)
system.membus.respLayer1.utilization              0.1                       # Layer utilization (%)
system.membus.respLayer2.occupancy          119240750                       # Layer occupancy (ticks)
system.membus.respLayer2.utilization              1.8                       # Layer utilization (%)
system.membus.badaddr_responder.pwrStateResidencyTicks::UNDEFINED   6652347000                       # Cumulative time (in ticks) in various power states
system.tol2bus.snoop_filter.tot_requests       220210                       # Total number of requests made to the snoop filter.
system.tol2bus.snoop_filter.hit_single_requests       110108                       # Number of requests hitting in the snoop filter with a single holder of the requested data.
system.tol2bus.snoop_filter.hit_multi_requests          343                       # Number of requests hitting in the snoop filter with multiple (>1) holders of the requested data.
system.tol2bus.snoop_filter.tot_snoops           4062                       # Total number of snoops made to the snoop filter.
system.tol2bus.snoop_filter.hit_single_snoops         4050                       # Number of snoops hitting in the snoop filter with a single holder of the requested data.
system.tol2bus.snoop_filter.hit_multi_snoops           12                       # Number of snoops hitting in the snoop filter with multiple (>1) holders of the requested data.
system.tol2bus.pwrStateResidencyTicks::UNDEFINED   6652347000                       # Cumulative time (in ticks) in various power states
system.tol2bus.trans_dist::ReadReq                610                       # Transaction distribution
system.tol2bus.trans_dist::ReadResp             83166                       # Transaction distribution
system.tol2bus.trans_dist::WriteReq               464                       # Transaction distribution
system.tol2bus.trans_dist::WriteResp              464                       # Transaction distribution
system.tol2bus.trans_dist::WritebackDirty        50080                       # Transaction distribution
system.tol2bus.trans_dist::WritebackClean        59435                       # Transaction distribution
system.tol2bus.trans_dist::CleanEvict           34967                       # Transaction distribution
system.tol2bus.trans_dist::UpgradeReq               7                       # Transaction distribution
system.tol2bus.trans_dist::UpgradeResp              7                       # Transaction distribution
system.tol2bus.trans_dist::ReadExReq            27576                       # Transaction distribution
system.tol2bus.trans_dist::ReadExResp           27576                       # Transaction distribution
system.tol2bus.trans_dist::ReadCleanReq         59442                       # Transaction distribution
system.tol2bus.trans_dist::ReadSharedReq        23114                       # Transaction distribution
system.tol2bus.trans_dist::InvalidateReq         7072                       # Transaction distribution
system.tol2bus.pkt_count_system.cpu.icache.mem_side::system.l2.cpu_side       178317                       # Packet count per connected master and slave (bytes)
system.tol2bus.pkt_count_system.cpu.dcache.mem_side::system.l2.cpu_side       154178                       # Packet count per connected master and slave (bytes)
system.tol2bus.pkt_count::total                332495                       # Packet count per connected master and slave (bytes)
system.tol2bus.pkt_size_system.cpu.icache.mem_side::system.l2.cpu_side      3804000                       # Cumulative packet size per connected master and slave (bytes)
system.tol2bus.pkt_size_system.cpu.dcache.mem_side::system.l2.cpu_side      2761031                       # Cumulative packet size per connected master and slave (bytes)
system.tol2bus.pkt_size::total                6565031                       # Cumulative packet size per connected master and slave (bytes)
system.tol2bus.snoops                           41512                       # Total snoops (count)
system.tol2bus.snoopTraffic                    466272                       # Total snoop traffic (bytes)
system.tol2bus.snoop_fanout::samples           152669                       # Request fanout histogram
system.tol2bus.snoop_fanout::mean            0.028945                       # Request fanout histogram
system.tol2bus.snoop_fanout::stdev           0.168121                       # Request fanout histogram
system.tol2bus.snoop_fanout::underflows             0      0.00%      0.00% # Request fanout histogram
system.tol2bus.snoop_fanout::0                 148262     97.11%     97.11% # Request fanout histogram
system.tol2bus.snoop_fanout::1                   4395      2.88%     99.99% # Request fanout histogram
system.tol2bus.snoop_fanout::2                     12      0.01%    100.00% # Request fanout histogram
system.tol2bus.snoop_fanout::overflows              0      0.00%    100.00% # Request fanout histogram
system.tol2bus.snoop_fanout::min_value              0                       # Request fanout histogram
system.tol2bus.snoop_fanout::max_value              2                       # Request fanout histogram
system.tol2bus.snoop_fanout::total             152669                       # Request fanout histogram
system.tol2bus.reqLayer0.occupancy          158360500                       # Layer occupancy (ticks)
system.tol2bus.reqLayer0.utilization              2.4                       # Layer utilization (%)
system.tol2bus.snoopLayer0.occupancy            34485                       # Layer occupancy (ticks)
system.tol2bus.snoopLayer0.utilization            0.0                       # Layer utilization (%)
system.tol2bus.respLayer0.occupancy          59442000                       # Layer occupancy (ticks)
system.tol2bus.respLayer0.utilization             0.9                       # Layer utilization (%)
system.tol2bus.respLayer1.occupancy          51508500                       # Layer occupancy (ticks)
system.tol2bus.respLayer1.utilization             0.8                       # Layer utilization (%)
system.tsunami.backdoor.pwrStateResidencyTicks::UNDEFINED   6652347000                       # Cumulative time (in ticks) in various power states
system.tsunami.cchip.pwrStateResidencyTicks::UNDEFINED   6652347000                       # Cumulative time (in ticks) in various power states
system.tsunami.pchip.pwrStateResidencyTicks::UNDEFINED   6652347000                       # Cumulative time (in ticks) in various power states
system.tsunami.ethernet.pwrStateResidencyTicks::UNDEFINED   6652347000                       # Cumulative time (in ticks) in various power states
system.tsunami.ethernet.descDMAReads                0                       # Number of descriptors the device read w/ DMA
system.tsunami.ethernet.descDMAWrites               0                       # Number of descriptors the device wrote w/ DMA
system.tsunami.ethernet.descDmaReadBytes            0                       # number of descriptor bytes read w/ DMA
system.tsunami.ethernet.descDmaWriteBytes            0                       # number of descriptor bytes write w/ DMA
system.tsunami.ethernet.postedSwi                   0                       # number of software interrupts posted to CPU
system.tsunami.ethernet.coalescedSwi              nan                       # average number of Swi's coalesced into each post
system.tsunami.ethernet.totalSwi                    0                       # total number of Swi written to ISR
system.tsunami.ethernet.postedRxIdle                0                       # number of rxIdle interrupts posted to CPU
system.tsunami.ethernet.coalescedRxIdle           nan                       # average number of RxIdle's coalesced into each post
system.tsunami.ethernet.totalRxIdle                 0                       # total number of RxIdle written to ISR
system.tsunami.ethernet.postedRxOk                  0                       # number of RxOk interrupts posted to CPU
system.tsunami.ethernet.coalescedRxOk             nan                       # average number of RxOk's coalesced into each post
system.tsunami.ethernet.totalRxOk                   0                       # total number of RxOk written to ISR
system.tsunami.ethernet.postedRxDesc                0                       # number of RxDesc interrupts posted to CPU
system.tsunami.ethernet.coalescedRxDesc           nan                       # average number of RxDesc's coalesced into each post
system.tsunami.ethernet.totalRxDesc                 0                       # total number of RxDesc written to ISR
system.tsunami.ethernet.postedTxOk                  0                       # number of TxOk interrupts posted to CPU
system.tsunami.ethernet.coalescedTxOk             nan                       # average number of TxOk's coalesced into each post
system.tsunami.ethernet.totalTxOk                   0                       # total number of TxOk written to ISR
system.tsunami.ethernet.postedTxIdle                0                       # number of TxIdle interrupts posted to CPU
system.tsunami.ethernet.coalescedTxIdle           nan                       # average number of TxIdle's coalesced into each post
system.tsunami.ethernet.totalTxIdle                 0                       # total number of TxIdle written to ISR
system.tsunami.ethernet.postedTxDesc                0                       # number of TxDesc interrupts posted to CPU
system.tsunami.ethernet.coalescedTxDesc           nan                       # average number of TxDesc's coalesced into each post
system.tsunami.ethernet.totalTxDesc                 0                       # total number of TxDesc written to ISR
system.tsunami.ethernet.postedRxOrn                 0                       # number of RxOrn posted to CPU
system.tsunami.ethernet.coalescedRxOrn            nan                       # average number of RxOrn's coalesced into each post
system.tsunami.ethernet.totalRxOrn                  0                       # total number of RxOrn written to ISR
system.tsunami.ethernet.coalescedTotal            nan                       # average number of interrupts coalesced into each post
system.tsunami.ethernet.postedInterrupts            0                       # number of posts to CPU
system.tsunami.ethernet.droppedPackets              0                       # number of packets dropped
system.tsunami.fake_OROM.pwrStateResidencyTicks::UNDEFINED   6652347000                       # Cumulative time (in ticks) in various power states
system.tsunami.fake_ata0.pwrStateResidencyTicks::UNDEFINED   6652347000                       # Cumulative time (in ticks) in various power states
system.tsunami.fake_ata1.pwrStateResidencyTicks::UNDEFINED   6652347000                       # Cumulative time (in ticks) in various power states
system.tsunami.fake_pnp_addr.pwrStateResidencyTicks::UNDEFINED   6652347000                       # Cumulative time (in ticks) in various power states
system.tsunami.fake_pnp_read0.pwrStateResidencyTicks::UNDEFINED   6652347000                       # Cumulative time (in ticks) in various power states
system.tsunami.fake_pnp_read1.pwrStateResidencyTicks::UNDEFINED   6652347000                       # Cumulative time (in ticks) in various power states
system.tsunami.fake_pnp_read2.pwrStateResidencyTicks::UNDEFINED   6652347000                       # Cumulative time (in ticks) in various power states
system.tsunami.fake_pnp_read3.pwrStateResidencyTicks::UNDEFINED   6652347000                       # Cumulative time (in ticks) in various power states
system.tsunami.fake_pnp_read4.pwrStateResidencyTicks::UNDEFINED   6652347000                       # Cumulative time (in ticks) in various power states
system.tsunami.fake_pnp_read5.pwrStateResidencyTicks::UNDEFINED   6652347000                       # Cumulative time (in ticks) in various power states
system.tsunami.fake_pnp_read6.pwrStateResidencyTicks::UNDEFINED   6652347000                       # Cumulative time (in ticks) in various power states
system.tsunami.fake_pnp_read7.pwrStateResidencyTicks::UNDEFINED   6652347000                       # Cumulative time (in ticks) in various power states
system.tsunami.fake_pnp_write.pwrStateResidencyTicks::UNDEFINED   6652347000                       # Cumulative time (in ticks) in various power states
system.tsunami.fake_ppc.pwrStateResidencyTicks::UNDEFINED   6652347000                       # Cumulative time (in ticks) in various power states
system.tsunami.fake_sm_chip.pwrStateResidencyTicks::UNDEFINED   6652347000                       # Cumulative time (in ticks) in various power states
system.tsunami.fake_uart1.pwrStateResidencyTicks::UNDEFINED   6652347000                       # Cumulative time (in ticks) in various power states
system.tsunami.fake_uart2.pwrStateResidencyTicks::UNDEFINED   6652347000                       # Cumulative time (in ticks) in various power states
system.tsunami.fake_uart3.pwrStateResidencyTicks::UNDEFINED   6652347000                       # Cumulative time (in ticks) in various power states
system.tsunami.fake_uart4.pwrStateResidencyTicks::UNDEFINED   6652347000                       # Cumulative time (in ticks) in various power states
system.tsunami.fb.pwrStateResidencyTicks::UNDEFINED   6652347000                       # Cumulative time (in ticks) in various power states
system.tsunami.ide.pwrStateResidencyTicks::UNDEFINED   6652347000                       # Cumulative time (in ticks) in various power states
system.tsunami.io.pwrStateResidencyTicks::UNDEFINED   6652347000                       # Cumulative time (in ticks) in various power states
system.tsunami.uart.pwrStateResidencyTicks::UNDEFINED   6652347000                       # Cumulative time (in ticks) in various power states

---------- End Simulation Statistics   ----------
