---------- Begin Simulation Statistics ----------
sim_seconds                                  0.006652                       # Number of seconds simulated
sim_ticks                                  6652347000                       # Number of ticks simulated
system.cpu.dcache.tags.replacements             50663                       # number of replacements
system.cpu.dcache.tags.total_refs              571851                       # Total number of references to valid blocks.
system.cpu.dcache.tags.avg_refs             11.063730                       # Average number of references to valid blocks.
system.cpu.dcache.tags.occ_percent::total            1                       # Average percentage of cache occupancy
system.cpu.dcache.tags.data_accesses         19024487                       # Number of data accesses
system.cpu.dcache.ReadReq_hits::total          304271                       # number of ReadReq hits
system.cpu.dcache.WriteReq_hits::total         226295                       # number of WriteReq hits
system.cpu.dcache.overall_hits::total          530566                       # number of overall hits
system.cpu.dcache.ReadReq_misses::total         22409                       # number of ReadReq misses
system.cpu.dcache.overall_misses::total         49992                       # number of overall misses
system.cpu.dcache.ReadReq_miss_rate::total     0.068596                       # miss rate for ReadReq accesses
system.cpu.dcache.WriteReq_miss_rate::total     0.108647                       # miss rate for WriteReq accesses
system.cpu.dcache.overall_miss_rate::total     0.086110                       # miss rate for overall accesses
system.cpu.dcache.writebacks::total             35538                       # number of writebacks
system.l2.tags.replacements                     34384                       # number of replacements
system.l2.tags.total_refs                      620270                       # Total number of references to valid blocks.
system.l2.tags.avg_refs                      9.691264                       # Average number of references to valid blocks.
system.l2.tags.occ_percent::total            0.876189                       # Average percentage of cache occupancy
system.l2.tags.data_accesses                   258415                       # Number of data accesses
system.l2.overall_hits::total                   74536                       # number of overall hits
system.l2.overall_misses::total                 35567                       # number of overall misses
system.l2.overall_miss_rate::total           0.323034                       # miss rate for overall accesses
system.l2.writebacks::total                     14542                       # number of writebacks
---------- End Simulation Statistics   ----------
