---------- Begin Simulation Statistics ----------
sim_seconds                                  0.007908                       # Number of seconds simulated
sim_ticks                                  7907915000                       # Number of ticks simulated
system.cpu.dcache.tags.replacements            100060                       # number of replacements
system.cpu.dcache.tags.total_refs              496299                       # Total number of references to valid blocks.
system.cpu.dcache.tags.avg_refs              4.860530                       # Average number of references to valid blocks.
system.cpu.dcache.tags.occ_percent::total            1                       # Average percentage of cache occupancy
system.cpu.dcache.tags.data_accesses           691725                       # Number of data accesses
system.cpu.dcache.ReadReq_hits::total          283849                       # number of ReadReq hits
system.cpu.dcache.WriteReq_hits::total         196616                       # number of WriteReq hits
system.cpu.dcache.overall_hits::total          480465                       # number of overall hits
system.cpu.dcache.ReadReq_misses::total         42646                       # number of ReadReq misses
system.cpu.dcache.overall_misses::total         98810                       # number of overall misses
system.cpu.dcache.ReadReq_miss_rate::total     0.130618                       # miss rate for ReadReq accesses
system.cpu.dcache.WriteReq_miss_rate::total     0.222185                       # miss rate for WriteReq accesses
system.cpu.dcache.overall_miss_rate::total     0.170575                       # miss rate for overall accesses
system.cpu.dcache.writebacks::total             79464                       # number of writebacks
system.l2.tags.replacements                     21182                       # number of replacements
system.l2.tags.total_refs                     4264388                       # Total number of references to valid blocks.
system.l2.tags.avg_refs                     51.127459                       # Average number of references to valid blocks.
system.l2.tags.occ_percent::total            0.859635                       # Average percentage of cache occupancy
system.l2.tags.data_accesses                  3201139                       # Number of data accesses
system.l2.overall_hits::total                  160282                       # number of overall hits
system.l2.overall_misses::total                 37517                       # number of overall misses
system.l2.overall_miss_rate::total           0.189672                       # miss rate for overall accesses
system.l2.writebacks::total                      7217                       # number of writebacks
---------- End Simulation Statistics   ----------
