---------- Begin Simulation Statistics ----------
sim_seconds                                  0.006948                       # Number of seconds simulated
sim_ticks                                  6948413000                       # Number of ticks simulated
system.cpu.dcache.tags.replacements             30599                       # number of replacements
system.cpu.dcache.tags.total_refs              564169                       # Total number of references to valid blocks.
system.cpu.dcache.tags.avg_refs             18.360693                       # Average number of references to valid blocks.
system.cpu.dcache.tags.occ_percent::total            1                       # Average percentage of cache occupancy
system.cpu.dcache.tags.data_accesses         18855495                       # Number of data accesses
system.cpu.dcache.ReadReq_hits::total          301502                       # number of ReadReq hits
system.cpu.dcache.WriteReq_hits::total         244673                       # number of WriteReq hits
system.cpu.dcache.overall_hits::total          546175                       # number of overall hits
system.cpu.dcache.ReadReq_misses::total         21439                       # number of ReadReq misses
system.cpu.dcache.overall_misses::total         29795                       # number of overall misses
system.cpu.dcache.ReadReq_miss_rate::total     0.066387                       # miss rate for ReadReq accesses
system.cpu.dcache.WriteReq_miss_rate::total     0.033024                       # miss rate for WriteReq accesses
system.cpu.dcache.overall_miss_rate::total     0.051730                       # miss rate for overall accesses
system.cpu.dcache.writebacks::total             14425                       # number of writebacks
system.l2.tags.replacements                     42206                       # number of replacements
system.l2.tags.total_refs                      103964                       # Total number of references to valid blocks.
system.l2.tags.avg_refs                      2.433728                       # Average number of references to valid blocks.
system.l2.tags.occ_percent::total                   1                       # Average percentage of cache occupancy
system.l2.tags.data_accesses                 73400030                       # Number of data accesses
system.l2.overall_hits::total                   31856                       # number of overall hits
system.l2.overall_misses::total                 39887                       # number of overall misses
system.l2.overall_miss_rate::total           0.555971                       # miss rate for overall accesses
system.l2.writebacks::total                     10587                       # number of writebacks
---------- End Simulation Statistics   ----------
