---------- Begin Simulation Statistics ----------
sim_seconds                                  0.006956                       # Number of seconds simulated
sim_ticks                                  6955723000                       # Number of ticks simulated
system.cpu.dcache.tags.replacements             31050                       # number of replacements
system.cpu.dcache.tags.total_refs              564254                       # Total number of references to valid blocks.
system.cpu.dcache.tags.avg_refs             18.097825                       # Average number of references to valid blocks.
system.cpu.dcache.tags.occ_percent::total            1                       # Average percentage of cache occupancy
system.cpu.dcache.tags.data_accesses         18851562                       # Number of data accesses
system.cpu.dcache.ReadReq_hits::total          301037                       # number of ReadReq hits
system.cpu.dcache.WriteReq_hits::total         244570                       # number of WriteReq hits
system.cpu.dcache.overall_hits::total          545607                       # number of overall hits
system.cpu.dcache.ReadReq_misses::total         21852                       # number of ReadReq misses
system.cpu.dcache.overall_misses::total         30241                       # number of overall misses
system.cpu.dcache.ReadReq_miss_rate::total     0.067677                       # miss rate for ReadReq accesses
system.cpu.dcache.WriteReq_miss_rate::total     0.033163                       # miss rate for WriteReq accesses
system.cpu.dcache.overall_miss_rate::total     0.052516                       # miss rate for overall accesses
system.cpu.dcache.writebacks::total             14634                       # number of writebacks
system.l2.tags.replacements                     42226                       # number of replacements
system.l2.tags.total_refs                      105468                       # Total number of references to valid blocks.
system.l2.tags.avg_refs                      2.467780                       # Average number of references to valid blocks.
system.l2.tags.occ_percent::total                   1                       # Average percentage of cache occupancy
system.l2.tags.data_accesses                 18481010                       # Number of data accesses
system.l2.overall_hits::total                   32212                       # number of overall hits
system.l2.overall_misses::total                 39918                       # number of overall misses
system.l2.overall_miss_rate::total           0.553417                       # miss rate for overall accesses
system.l2.writebacks::total                     10572                       # number of writebacks
---------- End Simulation Statistics   ----------
