
---------- Begin Simulation Statistics ----------
sim_seconds                                  2.644233                       # Number of seconds simulated
sim_ticks                                2644233227500                       # Number of ticks simulated
final_tick                               2644233227500                       # Number of ticks from beginning of simulation (restored from checkpoints and never reset)
sim_freq                                 1000000000000                       # Frequency of simulated ticks
host_inst_rate                                 198958                       # Simulator instruction rate (inst/s)
host_op_rate                                   198958                       # Simulator op (including micro ops) rate (op/s)
host_tick_rate                             5397529503                       # Simulator tick rate (ticks/s)
host_mem_usage                                 732004                       # Number of bytes of host memory used
host_seconds                                   489.90                       # Real time elapsed on the host
sim_insts                                    97468971                       # Number of instructions simulated
sim_ops                                      97468971                       # Number of ops (including micro ops) simulated
system.voltage_domain.voltage                       1                       # Voltage in Volts
system.clk_domain.clock                          1000                       # Clock period in ticks
system.mem_ctrls.pwrStateResidencyTicks::UNDEFINED 2644233227500                       # Cumulative time (in ticks) in various power states
system.mem_ctrls.bytes_read::cpu.inst       109486464                       # Number of bytes read from this memory
system.mem_ctrls.bytes_read::cpu.data       311904128                       # Number of bytes read from this memory
system.mem_ctrls.bytes_read::tsunami.ide         4096                       # Number of bytes read from this memory
system.mem_ctrls.bytes_read::total          421394688                       # Number of bytes read from this memory
system.mem_ctrls.bytes_inst_read::cpu.inst    109486464                       # Number of instructions bytes read from this memory
system.mem_ctrls.bytes_inst_read::total     109486464                       # Number of instructions bytes read from this memory
system.mem_ctrls.bytes_written::writebacks     54830976                       # Number of bytes written to this memory
system.mem_ctrls.bytes_written::total        54830976                       # Number of bytes written to this memory
system.mem_ctrls.num_reads::cpu.inst           855363                       # Number of read requests responded to by this memory
system.mem_ctrls.num_reads::cpu.data          2436751                       # Number of read requests responded to by this memory
system.mem_ctrls.num_reads::tsunami.ide            32                       # Number of read requests responded to by this memory
system.mem_ctrls.num_reads::total             3292146                       # Number of read requests responded to by this memory
system.mem_ctrls.num_writes::writebacks        428367                       # Number of write requests responded to by this memory
system.mem_ctrls.num_writes::total             428367                       # Number of write requests responded to by this memory
system.mem_ctrls.bw_read::cpu.inst           41405752                       # Total read bandwidth from this memory (bytes/s)
system.mem_ctrls.bw_read::cpu.data          117956361                       # Total read bandwidth from this memory (bytes/s)
system.mem_ctrls.bw_read::tsunami.ide            1549                       # Total read bandwidth from this memory (bytes/s)
system.mem_ctrls.bw_read::total             159363661                       # Total read bandwidth from this memory (bytes/s)
system.mem_ctrls.bw_inst_read::cpu.inst      41405752                       # Instruction read bandwidth from this memory (bytes/s)
system.mem_ctrls.bw_inst_read::total         41405752                       # Instruction read bandwidth from this memory (bytes/s)
system.mem_ctrls.bw_write::writebacks        20736059                       # Write bandwidth from this memory (bytes/s)
system.mem_ctrls.bw_write::total             20736059                       # Write bandwidth from this memory (bytes/s)
system.mem_ctrls.bw_total::writebacks        20736059                       # Total bandwidth to/from this memory (bytes/s)
system.mem_ctrls.bw_total::cpu.inst          41405752                       # Total bandwidth to/from this memory (bytes/s)
system.mem_ctrls.bw_total::cpu.data         117956361                       # Total bandwidth to/from this memory (bytes/s)
system.mem_ctrls.bw_total::tsunami.ide           1549                       # Total bandwidth to/from this memory (bytes/s)
system.mem_ctrls.bw_total::total            180099720                       # Total bandwidth to/from this memory (bytes/s)
system.mem_ctrls.readReqs                     3292146                       # Number of read requests accepted
system.mem_ctrls.writeReqs                     428367                       # Number of write requests accepted
system.mem_ctrls.readBursts                   6584292                       # Number of DRAM read bursts, including those serviced by the write queue
system.mem_ctrls.writeBursts                   856734                       # Number of DRAM write bursts, including those merged in the write queue
system.mem_ctrls.bytesReadDRAM              418619072                       # Total number of bytes read from DRAM
system.mem_ctrls.bytesReadWrQ                 2775616                       # Total number of bytes read from write queue
system.mem_ctrls.bytesWritten                54591168                       # Total number of bytes written to DRAM
system.mem_ctrls.bytesReadSys               421394688                       # Total read bytes from the system interface side
system.mem_ctrls.bytesWrittenSys             54830976                       # Total written bytes from the system interface side
system.mem_ctrls.servicedByWrQ                  43369                       # Number of DRAM read bursts serviced by the write queue
system.mem_ctrls.mergedWrBursts                  3719                       # Number of DRAM write bursts merged with an existing one
system.mem_ctrls.neitherReadNorWriteReqs            0                       # Number of requests that are neither read nor write
system.mem_ctrls.perBankRdBursts::0            561257                       # Per bank write bursts
system.mem_ctrls.perBankRdBursts::1            356014                       # Per bank write bursts
system.mem_ctrls.perBankRdBursts::2            281619                       # Per bank write bursts
system.mem_ctrls.perBankRdBursts::3            263070                       # Per bank write bursts
system.mem_ctrls.perBankRdBursts::4            340723                       # Per bank write bursts
system.mem_ctrls.perBankRdBursts::5            326983                       # Per bank write bursts
system.mem_ctrls.perBankRdBursts::6            268099                       # Per bank write bursts
system.mem_ctrls.perBankRdBursts::7            397072                       # Per bank write bursts
system.mem_ctrls.perBankRdBursts::8            451434                       # Per bank write bursts
system.mem_ctrls.perBankRdBursts::9            655513                       # Per bank write bursts
system.mem_ctrls.perBankRdBursts::10           436202                       # Per bank write bursts
system.mem_ctrls.perBankRdBursts::11           486015                       # Per bank write bursts
system.mem_ctrls.perBankRdBursts::12           445796                       # Per bank write bursts
system.mem_ctrls.perBankRdBursts::13           527887                       # Per bank write bursts
system.mem_ctrls.perBankRdBursts::14           391514                       # Per bank write bursts
system.mem_ctrls.perBankRdBursts::15           351725                       # Per bank write bursts
system.mem_ctrls.perBankWrBursts::0             39480                       # Per bank write bursts
system.mem_ctrls.perBankWrBursts::1             63004                       # Per bank write bursts
system.mem_ctrls.perBankWrBursts::2             42973                       # Per bank write bursts
system.mem_ctrls.perBankWrBursts::3             31610                       # Per bank write bursts
system.mem_ctrls.perBankWrBursts::4             31532                       # Per bank write bursts
system.mem_ctrls.perBankWrBursts::5             33722                       # Per bank write bursts
system.mem_ctrls.perBankWrBursts::6             37449                       # Per bank write bursts
system.mem_ctrls.perBankWrBursts::7             51978                       # Per bank write bursts
system.mem_ctrls.perBankWrBursts::8             49749                       # Per bank write bursts
system.mem_ctrls.perBankWrBursts::9             96203                       # Per bank write bursts
system.mem_ctrls.perBankWrBursts::10            68171                       # Per bank write bursts
system.mem_ctrls.perBankWrBursts::11            49126                       # Per bank write bursts
system.mem_ctrls.perBankWrBursts::12            49422                       # Per bank write bursts
system.mem_ctrls.perBankWrBursts::13            71028                       # Per bank write bursts
system.mem_ctrls.perBankWrBursts::14            39695                       # Per bank write bursts
system.mem_ctrls.perBankWrBursts::15            97845                       # Per bank write bursts
system.mem_ctrls.numRdRetry                        10                       # Number of times read queue was full causing retry
system.mem_ctrls.numWrRetry                      5561                       # Number of times write queue was full causing retry
system.mem_ctrls.totGap                  2644233214500                       # Total gap between requests
system.mem_ctrls.readPktSize::0                     0                       # Read request sizes (log2)
system.mem_ctrls.readPktSize::1                     0                       # Read request sizes (log2)
system.mem_ctrls.readPktSize::2                     0                       # Read request sizes (log2)
system.mem_ctrls.readPktSize::3                     0                       # Read request sizes (log2)
system.mem_ctrls.readPktSize::4                     0                       # Read request sizes (log2)
system.mem_ctrls.readPktSize::5                     0                       # Read request sizes (log2)
system.mem_ctrls.readPktSize::6               6584292                       # Read request sizes (log2)
system.mem_ctrls.writePktSize::0                    0                       # Write request sizes (log2)
system.mem_ctrls.writePktSize::1                    0                       # Write request sizes (log2)
system.mem_ctrls.writePktSize::2                    0                       # Write request sizes (log2)
system.mem_ctrls.writePktSize::3                    0                       # Write request sizes (log2)
system.mem_ctrls.writePktSize::4                    0                       # Write request sizes (log2)
system.mem_ctrls.writePktSize::5                    0                       # Write request sizes (log2)
system.mem_ctrls.writePktSize::6               856734                       # Write request sizes (log2)
system.mem_ctrls.rdQLenPdf::0                 3271075                       # What read queue length does an incoming req see
system.mem_ctrls.rdQLenPdf::1                 3269780                       # What read queue length does an incoming req see
system.mem_ctrls.rdQLenPdf::2                       1                       # What read queue length does an incoming req see
system.mem_ctrls.rdQLenPdf::3                       1                       # What read queue length does an incoming req see
system.mem_ctrls.rdQLenPdf::4                       1                       # What read queue length does an incoming req see
system.mem_ctrls.rdQLenPdf::5                       1                       # What read queue length does an incoming req see
system.mem_ctrls.rdQLenPdf::6                       1                       # What read queue length does an incoming req see
system.mem_ctrls.rdQLenPdf::7                       1                       # What read queue length does an incoming req see
system.mem_ctrls.rdQLenPdf::8                       1                       # What read queue length does an incoming req see
system.mem_ctrls.rdQLenPdf::9                       2                       # What read queue length does an incoming req see
system.mem_ctrls.rdQLenPdf::10                      2                       # What read queue length does an incoming req see
system.mem_ctrls.rdQLenPdf::11                      1                       # What read queue length does an incoming req see
system.mem_ctrls.rdQLenPdf::12                      1                       # What read queue length does an incoming req see
system.mem_ctrls.rdQLenPdf::13                      1                       # What read queue length does an incoming req see
system.mem_ctrls.rdQLenPdf::14                      1                       # What read queue length does an incoming req see
system.mem_ctrls.rdQLenPdf::15                      1                       # What read queue length does an incoming req see
system.mem_ctrls.rdQLenPdf::16                      1                       # What read queue length does an incoming req see
system.mem_ctrls.rdQLenPdf::17                      1                       # What read queue length does an incoming req see
system.mem_ctrls.rdQLenPdf::18                      1                       # What read queue length does an incoming req see
system.mem_ctrls.rdQLenPdf::19                      1                       # What read queue length does an incoming req see
system.mem_ctrls.rdQLenPdf::20                      1                       # What read queue length does an incoming req see
system.mem_ctrls.rdQLenPdf::21                      1                       # What read queue length does an incoming req see
system.mem_ctrls.rdQLenPdf::22                      1                       # What read queue length does an incoming req see
system.mem_ctrls.rdQLenPdf::23                      1                       # What read queue length does an incoming req see
system.mem_ctrls.rdQLenPdf::24                      2                       # What read queue length does an incoming req see
system.mem_ctrls.rdQLenPdf::25                      2                       # What read queue length does an incoming req see
system.mem_ctrls.rdQLenPdf::26                      3                       # What read queue length does an incoming req see
system.mem_ctrls.rdQLenPdf::27                      8                       # What read queue length does an incoming req see
system.mem_ctrls.rdQLenPdf::28                      8                       # What read queue length does an incoming req see
system.mem_ctrls.rdQLenPdf::29                      6                       # What read queue length does an incoming req see
system.mem_ctrls.rdQLenPdf::30                      9                       # What read queue length does an incoming req see
system.mem_ctrls.rdQLenPdf::31                      6                       # What read queue length does an incoming req see
system.mem_ctrls.wrQLenPdf::0                       1                       # What write queue length does an incoming req see
system.mem_ctrls.wrQLenPdf::1                       1                       # What write queue length does an incoming req see
system.mem_ctrls.wrQLenPdf::2                       1                       # What write queue length does an incoming req see
system.mem_ctrls.wrQLenPdf::3                       1                       # What write queue length does an incoming req see
system.mem_ctrls.wrQLenPdf::4                       1                       # What write queue length does an incoming req see
system.mem_ctrls.wrQLenPdf::5                       1                       # What write queue length does an incoming req see
system.mem_ctrls.wrQLenPdf::6                       1                       # What write queue length does an incoming req see
system.mem_ctrls.wrQLenPdf::7                       1                       # What write queue length does an incoming req see
system.mem_ctrls.wrQLenPdf::8                       1                       # What write queue length does an incoming req see
system.mem_ctrls.wrQLenPdf::9                       1                       # What write queue length does an incoming req see
system.mem_ctrls.wrQLenPdf::10                      1                       # What write queue length does an incoming req see
system.mem_ctrls.wrQLenPdf::11                      1                       # What write queue length does an incoming req see
system.mem_ctrls.wrQLenPdf::12                      1                       # What write queue length does an incoming req see
system.mem_ctrls.wrQLenPdf::13                      1                       # What write queue length does an incoming req see
system.mem_ctrls.wrQLenPdf::14                      1                       # What write queue length does an incoming req see
system.mem_ctrls.wrQLenPdf::15                  12552                       # What write queue length does an incoming req see
system.mem_ctrls.wrQLenPdf::16                  13656                       # What write queue length does an incoming req see
system.mem_ctrls.wrQLenPdf::17                  43318                       # What write queue length does an incoming req see
system.mem_ctrls.wrQLenPdf::18                  48275                       # What write queue length does an incoming req see
system.mem_ctrls.wrQLenPdf::19                  48759                       # What write queue length does an incoming req see
system.mem_ctrls.wrQLenPdf::20                  48852                       # What write queue length does an incoming req see
system.mem_ctrls.wrQLenPdf::21                  48865                       # What write queue length does an incoming req see
system.mem_ctrls.wrQLenPdf::22                  48886                       # What write queue length does an incoming req see
system.mem_ctrls.wrQLenPdf::23                  48890                       # What write queue length does an incoming req see
system.mem_ctrls.wrQLenPdf::24                  48896                       # What write queue length does an incoming req see
system.mem_ctrls.wrQLenPdf::25                  48975                       # What write queue length does an incoming req see
system.mem_ctrls.wrQLenPdf::26                  49168                       # What write queue length does an incoming req see
system.mem_ctrls.wrQLenPdf::27                  49304                       # What write queue length does an incoming req see
system.mem_ctrls.wrQLenPdf::28                  49397                       # What write queue length does an incoming req see
system.mem_ctrls.wrQLenPdf::29                  49747                       # What write queue length does an incoming req see
system.mem_ctrls.wrQLenPdf::30                  49812                       # What write queue length does an incoming req see
system.mem_ctrls.wrQLenPdf::31                  49600                       # What write queue length does an incoming req see
system.mem_ctrls.wrQLenPdf::32                  49488                       # What write queue length does an incoming req see
system.mem_ctrls.wrQLenPdf::33                   6875                       # What write queue length does an incoming req see
system.mem_ctrls.wrQLenPdf::34                    527                       # What write queue length does an incoming req see
system.mem_ctrls.wrQLenPdf::35                    514                       # What write queue length does an incoming req see
system.mem_ctrls.wrQLenPdf::36                    516                       # What write queue length does an incoming req see
system.mem_ctrls.wrQLenPdf::37                    491                       # What write queue length does an incoming req see
system.mem_ctrls.wrQLenPdf::38                    493                       # What write queue length does an incoming req see
system.mem_ctrls.wrQLenPdf::39                    466                       # What write queue length does an incoming req see
system.mem_ctrls.wrQLenPdf::40                    395                       # What write queue length does an incoming req see
system.mem_ctrls.wrQLenPdf::41                    370                       # What write queue length does an incoming req see
system.mem_ctrls.wrQLenPdf::42                    423                       # What write queue length does an incoming req see
system.mem_ctrls.wrQLenPdf::43                    455                       # What write queue length does an incoming req see
system.mem_ctrls.wrQLenPdf::44                    449                       # What write queue length does an incoming req see
system.mem_ctrls.wrQLenPdf::45                    389                       # What write queue length does an incoming req see
system.mem_ctrls.wrQLenPdf::46                    274                       # What write queue length does an incoming req see
system.mem_ctrls.wrQLenPdf::47                    306                       # What write queue length does an incoming req see
system.mem_ctrls.wrQLenPdf::48                    343                       # What write queue length does an incoming req see
system.mem_ctrls.wrQLenPdf::49                    376                       # What write queue length does an incoming req see
system.mem_ctrls.wrQLenPdf::50                    406                       # What write queue length does an incoming req see
system.mem_ctrls.wrQLenPdf::51                    444                       # What write queue length does an incoming req see
system.mem_ctrls.wrQLenPdf::52                    455                       # What write queue length does an incoming req see
system.mem_ctrls.wrQLenPdf::53                    496                       # What write queue length does an incoming req see
system.mem_ctrls.wrQLenPdf::54                    533                       # What write queue length does an incoming req see
system.mem_ctrls.wrQLenPdf::55                    566                       # What write queue length does an incoming req see
system.mem_ctrls.wrQLenPdf::56                    593                       # What write queue length does an incoming req see
system.mem_ctrls.wrQLenPdf::57                    667                       # What write queue length does an incoming req see
system.mem_ctrls.wrQLenPdf::58                    806                       # What write queue length does an incoming req see
system.mem_ctrls.wrQLenPdf::59                    897                       # What write queue length does an incoming req see
system.mem_ctrls.wrQLenPdf::60                   1089                       # What write queue length does an incoming req see
system.mem_ctrls.wrQLenPdf::61                   1751                       # What write queue length does an incoming req see
system.mem_ctrls.wrQLenPdf::62                  12689                       # What write queue length does an incoming req see
system.mem_ctrls.wrQLenPdf::63                  11506                       # What write queue length does an incoming req see
system.mem_ctrls.bytesPerActivate::samples      1237160                       # Bytes accessed per row activation
system.mem_ctrls.bytesPerActivate::mean    382.496065                       # Bytes accessed per row activation
system.mem_ctrls.bytesPerActivate::gmean   267.770478                       # Bytes accessed per row activation
system.mem_ctrls.bytesPerActivate::stdev   336.731100                       # Bytes accessed per row activation
system.mem_ctrls.bytesPerActivate::0-127        23990      1.94%      1.94% # Bytes accessed per row activation
system.mem_ctrls.bytesPerActivate::128-255       538273     43.51%     45.45% # Bytes accessed per row activation
system.mem_ctrls.bytesPerActivate::256-383       231850     18.74%     64.19% # Bytes accessed per row activation
system.mem_ctrls.bytesPerActivate::384-511        94427      7.63%     71.82% # Bytes accessed per row activation
system.mem_ctrls.bytesPerActivate::512-639        52322      4.23%     76.05% # Bytes accessed per row activation
system.mem_ctrls.bytesPerActivate::640-767        38307      3.10%     79.15% # Bytes accessed per row activation
system.mem_ctrls.bytesPerActivate::768-895        27061      2.19%     81.33% # Bytes accessed per row activation
system.mem_ctrls.bytesPerActivate::896-1023        20909      1.69%     83.02% # Bytes accessed per row activation
system.mem_ctrls.bytesPerActivate::1024-1151       210021     16.98%    100.00% # Bytes accessed per row activation
system.mem_ctrls.bytesPerActivate::total      1237160                       # Bytes accessed per row activation
system.mem_ctrls.rdPerTurnAround::samples        51045                       # Reads before turning the bus around for writes
system.mem_ctrls.rdPerTurnAround::mean     128.140327                       # Reads before turning the bus around for writes
system.mem_ctrls.rdPerTurnAround::stdev   4572.896970                       # Reads before turning the bus around for writes
system.mem_ctrls.rdPerTurnAround::0-32767        51044    100.00%    100.00% # Reads before turning the bus around for writes
system.mem_ctrls.rdPerTurnAround::1.01581e+06-1.04858e+06            1      0.00%    100.00% # Reads before turning the bus around for writes
system.mem_ctrls.rdPerTurnAround::total         51045                       # Reads before turning the bus around for writes
system.mem_ctrls.wrPerTurnAround::samples        51044                       # Writes before turning the bus around for reads
system.mem_ctrls.wrPerTurnAround::mean      16.710720                       # Writes before turning the bus around for reads
system.mem_ctrls.wrPerTurnAround::gmean     16.650178                       # Writes before turning the bus around for reads
system.mem_ctrls.wrPerTurnAround::stdev      1.779636                       # Writes before turning the bus around for reads
system.mem_ctrls.wrPerTurnAround::16-19         50027     98.01%     98.01% # Writes before turning the bus around for reads
system.mem_ctrls.wrPerTurnAround::20-23           586      1.15%     99.16% # Writes before turning the bus around for reads
system.mem_ctrls.wrPerTurnAround::24-27           274      0.54%     99.69% # Writes before turning the bus around for reads
system.mem_ctrls.wrPerTurnAround::28-31            87      0.17%     99.86% # Writes before turning the bus around for reads
system.mem_ctrls.wrPerTurnAround::32-35            30      0.06%     99.92% # Writes before turning the bus around for reads
system.mem_ctrls.wrPerTurnAround::36-39            16      0.03%     99.95% # Writes before turning the bus around for reads
system.mem_ctrls.wrPerTurnAround::40-43            12      0.02%     99.98% # Writes before turning the bus around for reads
system.mem_ctrls.wrPerTurnAround::44-47             2      0.00%     99.98% # Writes before turning the bus around for reads
system.mem_ctrls.wrPerTurnAround::48-51             2      0.00%     99.98% # Writes before turning the bus around for reads
system.mem_ctrls.wrPerTurnAround::56-59             1      0.00%     99.99% # Writes before turning the bus around for reads
system.mem_ctrls.wrPerTurnAround::60-63             1      0.00%     99.99% # Writes before turning the bus around for reads
system.mem_ctrls.wrPerTurnAround::64-67             1      0.00%     99.99% # Writes before turning the bus around for reads
system.mem_ctrls.wrPerTurnAround::72-75             1      0.00%     99.99% # Writes before turning the bus around for reads
system.mem_ctrls.wrPerTurnAround::84-87             1      0.00%     99.99% # Writes before turning the bus around for reads
system.mem_ctrls.wrPerTurnAround::88-91             1      0.00%    100.00% # Writes before turning the bus around for reads
system.mem_ctrls.wrPerTurnAround::108-111            1      0.00%    100.00% # Writes before turning the bus around for reads
system.mem_ctrls.wrPerTurnAround::148-151            1      0.00%    100.00% # Writes before turning the bus around for reads
system.mem_ctrls.wrPerTurnAround::total         51044                       # Writes before turning the bus around for reads
system.mem_ctrls.totQLat                 130359585780                       # Total ticks spent queuing
system.mem_ctrls.totMemAccLat            253001892030                       # Total ticks spent from burst creation until serviced by the DRAM
system.mem_ctrls.totBusLat                32704615000                       # Total ticks spent in databus transfers
system.mem_ctrls.avgQLat                     19929.85                       # Average queueing delay per DRAM burst
system.mem_ctrls.avgBusLat                    5000.00                       # Average bus latency per DRAM burst
system.mem_ctrls.avgMemAccLat                38679.85                       # Average memory access latency per DRAM burst
system.mem_ctrls.avgRdBW                       158.31                       # Average DRAM read bandwidth in MiByte/s
system.mem_ctrls.avgWrBW                        20.65                       # Average achieved write bandwidth in MiByte/s
system.mem_ctrls.avgRdBWSys                    159.36                       # Average system read bandwidth in MiByte/s
system.mem_ctrls.avgWrBWSys                     20.74                       # Average system write bandwidth in MiByte/s
system.mem_ctrls.peakBW                      12800.00                       # Theoretical peak bandwidth in MiByte/s
system.mem_ctrls.busUtil                         1.40                       # Data bus utilization in percentage
system.mem_ctrls.busUtilRead                     1.24                       # Data bus utilization in percentage for reads
system.mem_ctrls.busUtilWrite                    0.16                       # Data bus utilization in percentage for writes
system.mem_ctrls.avgRdQLen                       2.00                       # Average read queue length when enqueuing
system.mem_ctrls.avgWrQLen                      26.68                       # Average write queue length when enqueuing
system.mem_ctrls.readRowHits                  5509286                       # Number of row buffer hits during reads
system.mem_ctrls.writeRowHits                  647458                       # Number of row buffer hits during writes
system.mem_ctrls.readRowHitRate                 84.23                       # Row buffer hit rate for reads
system.mem_ctrls.writeRowHitRate                75.90                       # Row buffer hit rate for writes
system.mem_ctrls.avgGap                     710717.37                       # Average gap between requests
system.mem_ctrls.pageHitRate                    83.27                       # Row buffer hit rate, read and write combined
system.mem_ctrls_0.actEnergy               3323620020                       # Energy for activate commands per rank (pJ)
system.mem_ctrls_0.preEnergy               1766542140                       # Energy for precharge commands per rank (pJ)
system.mem_ctrls_0.readEnergy             19955136180                       # Energy for read commands per rank (pJ)
system.mem_ctrls_0.writeEnergy             1731724560                       # Energy for write commands per rank (pJ)
system.mem_ctrls_0.refreshEnergy         36774525840.000008                       # Energy for refresh commands per rank (pJ)
system.mem_ctrls_0.actBackEnergy          43147223880                       # Energy for active background per rank (pJ)
system.mem_ctrls_0.preBackEnergy           1431746880                       # Energy for precharge background per rank (pJ)
system.mem_ctrls_0.actPowerDownEnergy    131302093500                       # Energy for active power-down per rank (pJ)
system.mem_ctrls_0.prePowerDownEnergy     21121760160                       # Energy for precharge power-down per rank (pJ)
system.mem_ctrls_0.selfRefreshEnergy     530575039380                       # Energy for self refresh per rank (pJ)
system.mem_ctrls_0.totalEnergy           791132247270                       # Total energy per rank (pJ)
system.mem_ctrls_0.averagePower            299.191554                       # Core power per rank (mW)
system.mem_ctrls_0.totalIdleTime         2545873408000                       # Total Idle time Per DRAM Rank
system.mem_ctrls_0.memoryStateTime::IDLE   1491340750                       # Time in different power states
system.mem_ctrls_0.memoryStateTime::REF   15576916000                       # Time in different power states
system.mem_ctrls_0.memoryStateTime::SREF 2202929170000                       # Time in different power states
system.mem_ctrls_0.memoryStateTime::PRE_PDN  55004083500                       # Time in different power states
system.mem_ctrls_0.memoryStateTime::ACT   81290447000                       # Time in different power states
system.mem_ctrls_0.memoryStateTime::ACT_PDN 287941270250                       # Time in different power states
system.mem_ctrls_1.actEnergy               5509745220                       # Energy for activate commands per rank (pJ)
system.mem_ctrls_1.preEnergy               2928480060                       # Energy for precharge commands per rank (pJ)
system.mem_ctrls_1.readEnergy             26747054040                       # Energy for read commands per rank (pJ)
system.mem_ctrls_1.writeEnergy             2720841480                       # Energy for write commands per rank (pJ)
system.mem_ctrls_1.refreshEnergy         36827999520.000008                       # Energy for refresh commands per rank (pJ)
system.mem_ctrls_1.actBackEnergy          50208953310                       # Energy for active background per rank (pJ)
system.mem_ctrls_1.preBackEnergy           1395850080                       # Energy for precharge background per rank (pJ)
system.mem_ctrls_1.actPowerDownEnergy    129369920040                       # Energy for active power-down per rank (pJ)
system.mem_ctrls_1.prePowerDownEnergy     17328257760                       # Energy for precharge power-down per rank (pJ)
system.mem_ctrls_1.selfRefreshEnergy     530223363900                       # Energy for self refresh per rank (pJ)
system.mem_ctrls_1.totalEnergy           803262449460                       # Total energy per rank (pJ)
system.mem_ctrls_1.averagePower            303.778971                       # Core power per rank (mW)
system.mem_ctrls_1.totalIdleTime         2530487093992                       # Total Idle time Per DRAM Rank
system.mem_ctrls_1.memoryStateTime::IDLE   1392699750                       # Time in different power states
system.mem_ctrls_1.memoryStateTime::REF   15599200000                       # Time in different power states
system.mem_ctrls_1.memoryStateTime::SREF 2201655303500                       # Time in different power states
system.mem_ctrls_1.memoryStateTime::PRE_PDN  45127712250                       # Time in different power states
system.mem_ctrls_1.memoryStateTime::ACT   96754233758                       # Time in different power states
system.mem_ctrls_1.memoryStateTime::ACT_PDN 283704078242                       # Time in different power states
system.pwrStateResidencyTicks::UNDEFINED 2644233227500                       # Cumulative time (in ticks) in various power states
system.bridge.pwrStateResidencyTicks::UNDEFINED 2644233227500                       # Cumulative time (in ticks) in various power states
system.cpu_voltage_domain.voltage                   1                       # Voltage in Volts
system.cpu_clk_domain.clock                       500                       # Clock period in ticks
system.cpu.dtb.fetch_hits                           0                       # ITB hits
system.cpu.dtb.fetch_misses                         0                       # ITB misses
system.cpu.dtb.fetch_acv                            0                       # ITB acv
system.cpu.dtb.fetch_accesses                       0                       # ITB accesses
system.cpu.dtb.read_hits                     17013376                       # DTB read hits
system.cpu.dtb.read_misses                      12434                       # DTB read misses
system.cpu.dtb.read_acv                            98                       # DTB read access violations
system.cpu.dtb.read_accesses                   817021                       # DTB read accesses
system.cpu.dtb.write_hits                     8895466                       # DTB write hits
system.cpu.dtb.write_misses                      1307                       # DTB write misses
system.cpu.dtb.write_acv                          169                       # DTB write access violations
system.cpu.dtb.write_accesses                  324494                       # DTB write accesses
system.cpu.dtb.data_hits                     25908842                       # DTB hits
system.cpu.dtb.data_misses                      13741                       # DTB misses
system.cpu.dtb.data_acv                           267                       # DTB access violations
system.cpu.dtb.data_accesses                  1141515                       # DTB accesses
system.cpu.itb.fetch_hits                     5687866                       # ITB hits
system.cpu.itb.fetch_misses                      6040                       # ITB misses
system.cpu.itb.fetch_acv                            1                       # ITB acv
system.cpu.itb.fetch_accesses                 5693906                       # ITB accesses
system.cpu.itb.read_hits                            0                       # DTB read hits
system.cpu.itb.read_misses                          0                       # DTB read misses
system.cpu.itb.read_acv                             0                       # DTB read access violations
system.cpu.itb.read_accesses                        0                       # DTB read accesses
system.cpu.itb.write_hits                           0                       # DTB write hits
system.cpu.itb.write_misses                         0                       # DTB write misses
system.cpu.itb.write_acv                            0                       # DTB write access violations
system.cpu.itb.write_accesses                       0                       # DTB write accesses
system.cpu.itb.data_hits                            0                       # DTB hits
system.cpu.itb.data_misses                          0                       # DTB misses
system.cpu.itb.data_acv                             0                       # DTB access violations
system.cpu.itb.data_accesses                        0                       # DTB accesses
system.cpu.numPwrStateTransitions               14132                       # Number of power state transitions
system.cpu.pwrStateClkGateDist::samples          7066                       # Distribution of time spent in the clock gated state
system.cpu.pwrStateClkGateDist::mean     310407559.227286                       # Distribution of time spent in the clock gated state
system.cpu.pwrStateClkGateDist::stdev    451539869.442390                       # Distribution of time spent in the clock gated state
system.cpu.pwrStateClkGateDist::1000-5e+10         7066    100.00%    100.00% # Distribution of time spent in the clock gated state
system.cpu.pwrStateClkGateDist::min_value        90000                       # Distribution of time spent in the clock gated state
system.cpu.pwrStateClkGateDist::max_value   2000000000                       # Distribution of time spent in the clock gated state
system.cpu.pwrStateClkGateDist::total            7066                       # Distribution of time spent in the clock gated state
system.cpu.pwrStateResidencyTicks::ON    450893414000                       # Cumulative time (in ticks) in various power states
system.cpu.pwrStateResidencyTicks::CLK_GATED 2193339813500                       # Cumulative time (in ticks) in various power states
system.cpu.numCycles                       5288466455                       # number of cpu cycles simulated
system.cpu.numWorkItemsStarted                      0                       # number of work items this cpu started
system.cpu.numWorkItemsCompleted                    0                       # number of work items this cpu completed
system.cpu.kern.inst.arm                            0                       # number of arm instructions executed
system.cpu.kern.inst.quiesce                     7066                       # number of quiesce instructions executed
system.cpu.kern.callpal::cserve                     1      0.00%      0.00% # number of callpals executed
system.cpu.kern.callpal::wrmces                     1      0.00%      0.00% # number of callpals executed
system.cpu.kern.callpal::wrfen                      1      0.00%      0.00% # number of callpals executed
system.cpu.kern.callpal::wrvptptr                   1      0.00%      0.00% # number of callpals executed
system.cpu.kern.callpal::swpctx                  4477      2.07%      2.07% # number of callpals executed
system.cpu.kern.callpal::tbi                       65      0.03%      2.10% # number of callpals executed
system.cpu.kern.callpal::wrent                      7      0.00%      2.10% # number of callpals executed
system.cpu.kern.callpal::swpipl                198997     91.81%     93.91% # number of callpals executed
system.cpu.kern.callpal::rdps                    6157      2.84%     96.75% # number of callpals executed
system.cpu.kern.callpal::wrkgp                      1      0.00%     96.75% # number of callpals executed
system.cpu.kern.callpal::wrusp                      8      0.00%     96.75% # number of callpals executed
system.cpu.kern.callpal::rdusp                     10      0.00%     96.76% # number of callpals executed
system.cpu.kern.callpal::whami                      2      0.00%     96.76% # number of callpals executed
system.cpu.kern.callpal::rti                     6237      2.88%     99.63% # number of callpals executed
system.cpu.kern.callpal::callsys                  559      0.26%     99.89% # number of callpals executed
system.cpu.kern.callpal::imb                      235      0.11%    100.00% # number of callpals executed
system.cpu.kern.callpal::total                 216759                       # number of callpals executed
system.cpu.kern.inst.hwrei                     239563                       # number of hwrei instructions executed
system.cpu.kern.mode_switch::kernel              6915                       # number of protection mode switches
system.cpu.kern.mode_switch::user                1971                       # number of protection mode switches
system.cpu.kern.mode_switch::idle                2305                       # number of protection mode switches
system.cpu.kern.mode_good::kernel                2031                      
system.cpu.kern.mode_good::user                  1971                      
system.cpu.kern.mode_good::idle                    60                      
system.cpu.kern.mode_switch_good::kernel     0.293709                       # fraction of useful protection mode switches
system.cpu.kern.mode_switch_good::user              1                       # fraction of useful protection mode switches
system.cpu.kern.mode_switch_good::idle       0.026030                       # fraction of useful protection mode switches
system.cpu.kern.mode_switch_good::total      0.362970                       # fraction of useful protection mode switches
system.cpu.kern.mode_ticks::kernel       357061602500     13.50%     13.50% # number of ticks spent at the given mode
system.cpu.kern.mode_ticks::user          10576413000      0.40%     13.90% # number of ticks spent at the given mode
system.cpu.kern.mode_ticks::idle         2276592624000     86.10%    100.00% # number of ticks spent at the given mode
system.cpu.kern.swap_context                     4478                       # number of times the context was actually changed
system.cpu.kern.ipl_count::0                    83072     39.94%     39.94% # number of times we switched to this ipl
system.cpu.kern.ipl_count::21                     117      0.06%     40.00% # number of times we switched to this ipl
system.cpu.kern.ipl_count::22                    2636      1.27%     41.26% # number of times we switched to this ipl
system.cpu.kern.ipl_count::31                  122163     58.74%    100.00% # number of times we switched to this ipl
system.cpu.kern.ipl_count::total               207988                       # number of times we switched to this ipl
system.cpu.kern.ipl_good::0                     81535     49.17%     49.17% # number of times we switched to this ipl from a different ipl
system.cpu.kern.ipl_good::21                      117      0.07%     49.24% # number of times we switched to this ipl from a different ipl
system.cpu.kern.ipl_good::22                     2636      1.59%     50.83% # number of times we switched to this ipl from a different ipl
system.cpu.kern.ipl_good::31                    81535     49.17%    100.00% # number of times we switched to this ipl from a different ipl
system.cpu.kern.ipl_good::total                165823                       # number of times we switched to this ipl from a different ipl
system.cpu.kern.ipl_ticks::0             2488327721500     94.10%     94.10% # number of cycles we spent at this ipl
system.cpu.kern.ipl_ticks::21               237057000      0.01%     94.11% # number of cycles we spent at this ipl
system.cpu.kern.ipl_ticks::22              1762223500      0.07%     94.18% # number of cycles we spent at this ipl
system.cpu.kern.ipl_ticks::31            153903639500      5.82%    100.00% # number of cycles we spent at this ipl
system.cpu.kern.ipl_ticks::total         2644230641500                       # number of cycles we spent at this ipl
system.cpu.kern.ipl_used::0                  0.981498                       # fraction of swpipl calls that actually changed the ipl
system.cpu.kern.ipl_used::21                        1                       # fraction of swpipl calls that actually changed the ipl
system.cpu.kern.ipl_used::22                        1                       # fraction of swpipl calls that actually changed the ipl
system.cpu.kern.ipl_used::31                 0.667428                       # fraction of swpipl calls that actually changed the ipl
system.cpu.kern.ipl_used::total              0.797272                       # fraction of swpipl calls that actually changed the ipl
system.cpu.committedInsts                    97468971                       # Number of instructions committed
system.cpu.committedOps                      97468971                       # Number of ops (including micro ops) committed
system.cpu.num_int_alu_accesses              94460940                       # Number of integer alu accesses
system.cpu.num_fp_alu_accesses                 424241                       # Number of float alu accesses
system.cpu.num_vec_alu_accesses                     0                       # Number of vector alu accesses
system.cpu.num_func_calls                     2921386                       # number of times a function call or return occured
system.cpu.num_conditional_control_insts     12574162                       # number of instructions that are conditional controls
system.cpu.num_int_insts                     94460940                       # number of integer instructions
system.cpu.num_fp_insts                        424241                       # number of float instructions
system.cpu.num_vec_insts                            0                       # number of vector instructions
system.cpu.num_int_register_reads           129799048                       # number of times the integer registers were read
system.cpu.num_int_register_writes           71786599                       # number of times the integer registers were written
system.cpu.num_fp_register_reads               176762                       # number of times the floating registers were read
system.cpu.num_fp_register_writes              179725                       # number of times the floating registers were written
system.cpu.num_vec_register_reads                   0                       # number of times the vector registers were read
system.cpu.num_vec_register_writes                  0                       # number of times the vector registers were written
system.cpu.num_mem_refs                      25967595                       # number of memory refs
system.cpu.num_load_insts                    17054584                       # Number of load instructions
system.cpu.num_store_insts                    8913011                       # Number of store instructions
system.cpu.num_idle_cycles               4386679626.998341                       # Number of idle cycles
system.cpu.num_busy_cycles               901786828.001659                       # Number of busy cycles
system.cpu.not_idle_fraction                 0.170520                       # Percentage of non-idle cycles
system.cpu.idle_fraction                     0.829480                       # Percentage of idle cycles
system.cpu.Branches                          16112753                       # Number of branches fetched
system.cpu.op_class::No_OpClass               1595273      1.64%      1.64% # Class of executed instruction
system.cpu.op_class::IntAlu                  67988076     69.74%     71.38% # Class of executed instruction
system.cpu.op_class::IntMult                   187056      0.19%     71.57% # Class of executed instruction
system.cpu.op_class::IntDiv                         0      0.00%     71.57% # Class of executed instruction
system.cpu.op_class::FloatAdd                  117360      0.12%     71.69% # Class of executed instruction
system.cpu.op_class::FloatCmp                       0      0.00%     71.69% # Class of executed instruction
system.cpu.op_class::FloatCvt                       0      0.00%     71.69% # Class of executed instruction
system.cpu.op_class::FloatMult                      0      0.00%     71.69% # Class of executed instruction
system.cpu.op_class::FloatMultAcc                   0      0.00%     71.69% # Class of executed instruction
system.cpu.op_class::FloatDiv                    4179      0.00%     71.70% # Class of executed instruction
system.cpu.op_class::FloatMisc                      0      0.00%     71.70% # Class of executed instruction
system.cpu.op_class::FloatSqrt                      0      0.00%     71.70% # Class of executed instruction
system.cpu.op_class::SimdAdd                        0      0.00%     71.70% # Class of executed instruction
system.cpu.op_class::SimdAddAcc                     0      0.00%     71.70% # Class of executed instruction
system.cpu.op_class::SimdAlu                        0      0.00%     71.70% # Class of executed instruction
system.cpu.op_class::SimdCmp                        0      0.00%     71.70% # Class of executed instruction
system.cpu.op_class::SimdCvt                        0      0.00%     71.70% # Class of executed instruction
system.cpu.op_class::SimdMisc                       0      0.00%     71.70% # Class of executed instruction
system.cpu.op_class::SimdMult                       0      0.00%     71.70% # Class of executed instruction
system.cpu.op_class::SimdMultAcc                    0      0.00%     71.70% # Class of executed instruction
system.cpu.op_class::SimdShift                      0      0.00%     71.70% # Class of executed instruction
system.cpu.op_class::SimdShiftAcc                   0      0.00%     71.70% # Class of executed instruction
system.cpu.op_class::SimdSqrt                       0      0.00%     71.70% # Class of executed instruction
system.cpu.op_class::SimdFloatAdd                   0      0.00%     71.70% # Class of executed instruction
system.cpu.op_class::SimdFloatAlu                   0      0.00%     71.70% # Class of executed instruction
system.cpu.op_class::SimdFloatCmp                   0      0.00%     71.70% # Class of executed instruction
system.cpu.op_class::SimdFloatCvt                   0      0.00%     71.70% # Class of executed instruction
system.cpu.op_class::SimdFloatDiv                   0      0.00%     71.70% # Class of executed instruction
system.cpu.op_class::SimdFloatMisc                  0      0.00%     71.70% # Class of executed instruction
system.cpu.op_class::SimdFloatMult                  0      0.00%     71.70% # Class of executed instruction
system.cpu.op_class::SimdFloatMultAcc               0      0.00%     71.70% # Class of executed instruction
system.cpu.op_class::SimdFloatSqrt                  0      0.00%     71.70% # Class of executed instruction
system.cpu.op_class::MemRead                 17357342     17.81%     89.50% # Class of executed instruction
system.cpu.op_class::MemWrite                 8839718      9.07%     98.57% # Class of executed instruction
system.cpu.op_class::FloatMemRead              154926      0.16%     98.73% # Class of executed instruction
system.cpu.op_class::FloatMemWrite             147776      0.15%     98.88% # Class of executed instruction
system.cpu.op_class::IprAccess                1091273      1.12%    100.00% # Class of executed instruction
system.cpu.op_class::InstPrefetch                   0      0.00%    100.00% # Class of executed instruction
system.cpu.op_class::total                   97482979                       # Class of executed instruction
system.cpu.dcache.tags.pwrStateResidencyTicks::UNDEFINED 2644233227500                       # Cumulative time (in ticks) in various power states
system.cpu.dcache.tags.replacements           2816369                       # number of replacements
system.cpu.dcache.tags.tagsinuse           127.996961                       # Cycle average of tags in use
system.cpu.dcache.tags.total_refs            23105173                       # Total number of references to valid blocks.
system.cpu.dcache.tags.sampled_refs           2816369                       # Sample count of references to valid blocks.
system.cpu.dcache.tags.avg_refs              8.203887                       # Average number of references to valid blocks.
system.cpu.dcache.tags.warmup_cycle          79751500                       # Cycle when the warmup percentage was hit.
system.cpu.dcache.tags.occ_blocks::cpu.data   127.996961                       # Average occupied blocks per requestor
system.cpu.dcache.tags.occ_percent::cpu.data     0.999976                       # Average percentage of cache occupancy
system.cpu.dcache.tags.occ_percent::total     0.999976                       # Average percentage of cache occupancy
system.cpu.dcache.tags.occ_task_id_blocks::1024          128                       # Occupied blocks per task id
system.cpu.dcache.tags.age_task_id_blocks_1024::0           31                       # Occupied blocks per task id
system.cpu.dcache.tags.age_task_id_blocks_1024::1           84                       # Occupied blocks per task id
system.cpu.dcache.tags.age_task_id_blocks_1024::2           13                       # Occupied blocks per task id
system.cpu.dcache.tags.occ_task_id_percent::1024            1                       # Percentage of cache occupancy per task id
system.cpu.dcache.tags.tag_accesses         832575185                       # Number of tag accesses
system.cpu.dcache.tags.data_accesses        832575185                       # Number of data accesses
system.cpu.dcache.pwrStateResidencyTicks::UNDEFINED 2644233227500                       # Cumulative time (in ticks) in various power states
system.cpu.dcache.ReadReq_hits::cpu.data     14210796                       # number of ReadReq hits
system.cpu.dcache.ReadReq_hits::total        14210796                       # number of ReadReq hits
system.cpu.dcache.WriteReq_hits::cpu.data      8307168                       # number of WriteReq hits
system.cpu.dcache.WriteReq_hits::total        8307168                       # number of WriteReq hits
system.cpu.dcache.LoadLockedReq_hits::cpu.data       279512                       # number of LoadLockedReq hits
system.cpu.dcache.LoadLockedReq_hits::total       279512                       # number of LoadLockedReq hits
system.cpu.dcache.StoreCondReq_hits::cpu.data       315977                       # number of StoreCondReq hits
system.cpu.dcache.StoreCondReq_hits::total       315977                       # number of StoreCondReq hits
system.cpu.dcache.demand_hits::cpu.data      22517964                       # number of demand (read+write) hits
system.cpu.dcache.demand_hits::total         22517964                       # number of demand (read+write) hits
system.cpu.dcache.overall_hits::cpu.data     22517964                       # number of overall hits
system.cpu.dcache.overall_hits::total        22517964                       # number of overall hits
system.cpu.dcache.ReadReq_misses::cpu.data      2507252                       # number of ReadReq misses
system.cpu.dcache.ReadReq_misses::total       2507252                       # number of ReadReq misses
system.cpu.dcache.WriteReq_misses::cpu.data       271735                       # number of WriteReq misses
system.cpu.dcache.WriteReq_misses::total       271735                       # number of WriteReq misses
system.cpu.dcache.LoadLockedReq_misses::cpu.data        37519                       # number of LoadLockedReq misses
system.cpu.dcache.LoadLockedReq_misses::total        37519                       # number of LoadLockedReq misses
system.cpu.dcache.demand_misses::cpu.data      2778987                       # number of demand (read+write) misses
system.cpu.dcache.demand_misses::total        2778987                       # number of demand (read+write) misses
system.cpu.dcache.overall_misses::cpu.data      2778987                       # number of overall misses
system.cpu.dcache.overall_misses::total       2778987                       # number of overall misses
system.cpu.dcache.ReadReq_miss_latency::cpu.data 204922355000                       # number of ReadReq miss cycles
system.cpu.dcache.ReadReq_miss_latency::total 204922355000                       # number of ReadReq miss cycles
system.cpu.dcache.WriteReq_miss_latency::cpu.data  22882630500                       # number of WriteReq miss cycles
system.cpu.dcache.WriteReq_miss_latency::total  22882630500                       # number of WriteReq miss cycles
system.cpu.dcache.LoadLockedReq_miss_latency::cpu.data   2804971000                       # number of LoadLockedReq miss cycles
system.cpu.dcache.LoadLockedReq_miss_latency::total   2804971000                       # number of LoadLockedReq miss cycles
system.cpu.dcache.demand_miss_latency::cpu.data 227804985500                       # number of demand (read+write) miss cycles
system.cpu.dcache.demand_miss_latency::total 227804985500                       # number of demand (read+write) miss cycles
system.cpu.dcache.overall_miss_latency::cpu.data 227804985500                       # number of overall miss cycles
system.cpu.dcache.overall_miss_latency::total 227804985500                       # number of overall miss cycles
system.cpu.dcache.ReadReq_accesses::cpu.data     16718048                       # number of ReadReq accesses(hits+misses)
system.cpu.dcache.ReadReq_accesses::total     16718048                       # number of ReadReq accesses(hits+misses)
system.cpu.dcache.WriteReq_accesses::cpu.data      8578903                       # number of WriteReq accesses(hits+misses)
system.cpu.dcache.WriteReq_accesses::total      8578903                       # number of WriteReq accesses(hits+misses)
system.cpu.dcache.LoadLockedReq_accesses::cpu.data       317031                       # number of LoadLockedReq accesses(hits+misses)
system.cpu.dcache.LoadLockedReq_accesses::total       317031                       # number of LoadLockedReq accesses(hits+misses)
system.cpu.dcache.StoreCondReq_accesses::cpu.data       315977                       # number of StoreCondReq accesses(hits+misses)
system.cpu.dcache.StoreCondReq_accesses::total       315977                       # number of StoreCondReq accesses(hits+misses)
system.cpu.dcache.demand_accesses::cpu.data     25296951                       # number of demand (read+write) accesses
system.cpu.dcache.demand_accesses::total     25296951                       # number of demand (read+write) accesses
system.cpu.dcache.overall_accesses::cpu.data     25296951                       # number of overall (read+write) accesses
system.cpu.dcache.overall_accesses::total     25296951                       # number of overall (read+write) accesses
system.cpu.dcache.ReadReq_miss_rate::cpu.data     0.149973                       # miss rate for ReadReq accesses
system.cpu.dcache.ReadReq_miss_rate::total     0.149973                       # miss rate for ReadReq accesses
system.cpu.dcache.WriteReq_miss_rate::cpu.data     0.031675                       # miss rate for WriteReq accesses
system.cpu.dcache.WriteReq_miss_rate::total     0.031675                       # miss rate for WriteReq accesses
system.cpu.dcache.LoadLockedReq_miss_rate::cpu.data     0.118345                       # miss rate for LoadLockedReq accesses
system.cpu.dcache.LoadLockedReq_miss_rate::total     0.118345                       # miss rate for LoadLockedReq accesses
system.cpu.dcache.demand_miss_rate::cpu.data     0.109855                       # miss rate for demand accesses
system.cpu.dcache.demand_miss_rate::total     0.109855                       # miss rate for demand accesses
system.cpu.dcache.overall_miss_rate::cpu.data     0.109855                       # miss rate for overall accesses
system.cpu.dcache.overall_miss_rate::total     0.109855                       # miss rate for overall accesses
system.cpu.dcache.ReadReq_avg_miss_latency::cpu.data 81731.854237                       # average ReadReq miss latency
system.cpu.dcache.ReadReq_avg_miss_latency::total 81731.854237                       # average ReadReq miss latency
system.cpu.dcache.WriteReq_avg_miss_latency::cpu.data 84209.360222                       # average WriteReq miss latency
system.cpu.dcache.WriteReq_avg_miss_latency::total 84209.360222                       # average WriteReq miss latency
system.cpu.dcache.LoadLockedReq_avg_miss_latency::cpu.data 74761.347584                       # average LoadLockedReq miss latency
system.cpu.dcache.LoadLockedReq_avg_miss_latency::total 74761.347584                       # average LoadLockedReq miss latency
system.cpu.dcache.demand_avg_miss_latency::cpu.data 81974.109811                       # average overall miss latency
system.cpu.dcache.demand_avg_miss_latency::total 81974.109811                       # average overall miss latency
system.cpu.dcache.overall_avg_miss_latency::cpu.data 81974.109811                       # average overall miss latency
system.cpu.dcache.overall_avg_miss_latency::total 81974.109811                       # average overall miss latency
system.cpu.dcache.blocked_cycles::no_mshrs            0                       # number of cycles access was blocked
system.cpu.dcache.blocked_cycles::no_targets            0                       # number of cycles access was blocked
system.cpu.dcache.blocked::no_mshrs                 0                       # number of cycles access was blocked
system.cpu.dcache.blocked::no_targets               0                       # number of cycles access was blocked
system.cpu.dcache.avg_blocked_cycles::no_mshrs          nan                       # average number of cycles each access was blocked
system.cpu.dcache.avg_blocked_cycles::no_targets          nan                       # average number of cycles each access was blocked
system.cpu.dcache.writebacks::writebacks       551569                       # number of writebacks
system.cpu.dcache.writebacks::total            551569                       # number of writebacks
system.cpu.dcache.ReadReq_mshr_misses::cpu.data      2507252                       # number of ReadReq MSHR misses
system.cpu.dcache.ReadReq_mshr_misses::total      2507252                       # number of ReadReq MSHR misses
system.cpu.dcache.WriteReq_mshr_misses::cpu.data       271735                       # number of WriteReq MSHR misses
system.cpu.dcache.WriteReq_mshr_misses::total       271735                       # number of WriteReq MSHR misses
system.cpu.dcache.LoadLockedReq_mshr_misses::cpu.data        37519                       # number of LoadLockedReq MSHR misses
system.cpu.dcache.LoadLockedReq_mshr_misses::total        37519                       # number of LoadLockedReq MSHR misses
system.cpu.dcache.demand_mshr_misses::cpu.data      2778987                       # number of demand (read+write) MSHR misses
system.cpu.dcache.demand_mshr_misses::total      2778987                       # number of demand (read+write) MSHR misses
system.cpu.dcache.overall_mshr_misses::cpu.data      2778987                       # number of overall MSHR misses
system.cpu.dcache.overall_mshr_misses::total      2778987                       # number of overall MSHR misses
system.cpu.dcache.ReadReq_mshr_uncacheable::cpu.data         6973                       # number of ReadReq MSHR uncacheable
system.cpu.dcache.ReadReq_mshr_uncacheable::total         6973                       # number of ReadReq MSHR uncacheable
system.cpu.dcache.WriteReq_mshr_uncacheable::cpu.data        10414                       # number of WriteReq MSHR uncacheable
system.cpu.dcache.WriteReq_mshr_uncacheable::total        10414                       # number of WriteReq MSHR uncacheable
system.cpu.dcache.overall_mshr_uncacheable_misses::cpu.data        17387                       # number of overall MSHR uncacheable misses
system.cpu.dcache.overall_mshr_uncacheable_misses::total        17387                       # number of overall MSHR uncacheable misses
system.cpu.dcache.ReadReq_mshr_miss_latency::cpu.data 202415103000                       # number of ReadReq MSHR miss cycles
system.cpu.dcache.ReadReq_mshr_miss_latency::total 202415103000                       # number of ReadReq MSHR miss cycles
system.cpu.dcache.WriteReq_mshr_miss_latency::cpu.data  22610895500                       # number of WriteReq MSHR miss cycles
system.cpu.dcache.WriteReq_mshr_miss_latency::total  22610895500                       # number of WriteReq MSHR miss cycles
system.cpu.dcache.LoadLockedReq_mshr_miss_latency::cpu.data   2767452000                       # number of LoadLockedReq MSHR miss cycles
system.cpu.dcache.LoadLockedReq_mshr_miss_latency::total   2767452000                       # number of LoadLockedReq MSHR miss cycles
system.cpu.dcache.demand_mshr_miss_latency::cpu.data 225025998500                       # number of demand (read+write) MSHR miss cycles
system.cpu.dcache.demand_mshr_miss_latency::total 225025998500                       # number of demand (read+write) MSHR miss cycles
system.cpu.dcache.overall_mshr_miss_latency::cpu.data 225025998500                       # number of overall MSHR miss cycles
system.cpu.dcache.overall_mshr_miss_latency::total 225025998500                       # number of overall MSHR miss cycles
system.cpu.dcache.ReadReq_mshr_uncacheable_latency::cpu.data   1561275500                       # number of ReadReq MSHR uncacheable cycles
system.cpu.dcache.ReadReq_mshr_uncacheable_latency::total   1561275500                       # number of ReadReq MSHR uncacheable cycles
system.cpu.dcache.overall_mshr_uncacheable_latency::cpu.data   1561275500                       # number of overall MSHR uncacheable cycles
system.cpu.dcache.overall_mshr_uncacheable_latency::total   1561275500                       # number of overall MSHR uncacheable cycles
system.cpu.dcache.ReadReq_mshr_miss_rate::cpu.data     0.149973                       # mshr miss rate for ReadReq accesses
system.cpu.dcache.ReadReq_mshr_miss_rate::total     0.149973                       # mshr miss rate for ReadReq accesses
system.cpu.dcache.WriteReq_mshr_miss_rate::cpu.data     0.031675                       # mshr miss rate for WriteReq accesses
system.cpu.dcache.WriteReq_mshr_miss_rate::total     0.031675                       # mshr miss rate for WriteReq accesses
system.cpu.dcache.LoadLockedReq_mshr_miss_rate::cpu.data     0.118345                       # mshr miss rate for LoadLockedReq accesses
system.cpu.dcache.LoadLockedReq_mshr_miss_rate::total     0.118345                       # mshr miss rate for LoadLockedReq accesses
system.cpu.dcache.demand_mshr_miss_rate::cpu.data     0.109855                       # mshr miss rate for demand accesses
system.cpu.dcache.demand_mshr_miss_rate::total     0.109855                       # mshr miss rate for demand accesses
system.cpu.dcache.overall_mshr_miss_rate::cpu.data     0.109855                       # mshr miss rate for overall accesses
system.cpu.dcache.overall_mshr_miss_rate::total     0.109855                       # mshr miss rate for overall accesses
system.cpu.dcache.ReadReq_avg_mshr_miss_latency::cpu.data 80731.854237                       # average ReadReq mshr miss latency
system.cpu.dcache.ReadReq_avg_mshr_miss_latency::total 80731.854237                       # average ReadReq mshr miss latency
system.cpu.dcache.WriteReq_avg_mshr_miss_latency::cpu.data 83209.360222                       # average WriteReq mshr miss latency
system.cpu.dcache.WriteReq_avg_mshr_miss_latency::total 83209.360222                       # average WriteReq mshr miss latency
system.cpu.dcache.LoadLockedReq_avg_mshr_miss_latency::cpu.data 73761.347584                       # average LoadLockedReq mshr miss latency
system.cpu.dcache.LoadLockedReq_avg_mshr_miss_latency::total 73761.347584                       # average LoadLockedReq mshr miss latency
system.cpu.dcache.demand_avg_mshr_miss_latency::cpu.data 80974.109811                       # average overall mshr miss latency
system.cpu.dcache.demand_avg_mshr_miss_latency::total 80974.109811                       # average overall mshr miss latency
system.cpu.dcache.overall_avg_mshr_miss_latency::cpu.data 80974.109811                       # average overall mshr miss latency
system.cpu.dcache.overall_avg_mshr_miss_latency::total 80974.109811                       # average overall mshr miss latency
system.cpu.dcache.ReadReq_avg_mshr_uncacheable_latency::cpu.data 223902.982934                       # average ReadReq mshr uncacheable latency
system.cpu.dcache.ReadReq_avg_mshr_uncacheable_latency::total 223902.982934                       # average ReadReq mshr uncacheable latency
system.cpu.dcache.overall_avg_mshr_uncacheable_latency::cpu.data 89795.565652                       # average overall mshr uncacheable latency
system.cpu.dcache.overall_avg_mshr_uncacheable_latency::total 89795.565652                       # average overall mshr uncacheable latency
system.cpu.icache.tags.pwrStateResidencyTicks::UNDEFINED 2644233227500                       # Cumulative time (in ticks) in various power states
system.cpu.icache.tags.replacements           1648906                       # number of replacements
system.cpu.icache.tags.tagsinuse            63.996175                       # Cycle average of tags in use
system.cpu.icache.tags.total_refs            95831228                       # Total number of references to valid blocks.
system.cpu.icache.tags.sampled_refs           1648906                       # Sample count of references to valid blocks.
system.cpu.icache.tags.avg_refs             58.118066                       # Average number of references to valid blocks.
system.cpu.icache.tags.warmup_cycle         884860500                       # Cycle when the warmup percentage was hit.
system.cpu.icache.tags.occ_blocks::cpu.inst    63.996175                       # Average occupied blocks per requestor
system.cpu.icache.tags.occ_percent::cpu.inst     0.999940                       # Average percentage of cache occupancy
system.cpu.icache.tags.occ_percent::total     0.999940                       # Average percentage of cache occupancy
system.cpu.icache.tags.occ_task_id_blocks::1024           64                       # Occupied blocks per task id
system.cpu.icache.tags.age_task_id_blocks_1024::0           44                       # Occupied blocks per task id
system.cpu.icache.tags.age_task_id_blocks_1024::1           19                       # Occupied blocks per task id
system.cpu.icache.tags.age_task_id_blocks_1024::2            1                       # Occupied blocks per task id
system.cpu.icache.tags.occ_task_id_percent::1024            1                       # Percentage of cache occupancy per task id
system.cpu.icache.tags.tag_accesses         196615092                       # Number of tag accesses
system.cpu.icache.tags.data_accesses        196615092                       # Number of data accesses
system.cpu.icache.pwrStateResidencyTicks::UNDEFINED 2644233227500                       # Cumulative time (in ticks) in various power states
system.cpu.icache.ReadReq_hits::cpu.inst     95833848                       # number of ReadReq hits
system.cpu.icache.ReadReq_hits::total        95833848                       # number of ReadReq hits
system.cpu.icache.demand_hits::cpu.inst      95833848                       # number of demand (read+write) hits
system.cpu.icache.demand_hits::total         95833848                       # number of demand (read+write) hits
system.cpu.icache.overall_hits::cpu.inst     95833848                       # number of overall hits
system.cpu.icache.overall_hits::total        95833848                       # number of overall hits
system.cpu.icache.ReadReq_misses::cpu.inst      1649132                       # number of ReadReq misses
system.cpu.icache.ReadReq_misses::total       1649132                       # number of ReadReq misses
system.cpu.icache.demand_misses::cpu.inst      1649132                       # number of demand (read+write) misses
system.cpu.icache.demand_misses::total        1649132                       # number of demand (read+write) misses
system.cpu.icache.overall_misses::cpu.inst      1649132                       # number of overall misses
system.cpu.icache.overall_misses::total       1649132                       # number of overall misses
system.cpu.icache.ReadReq_miss_latency::cpu.inst  95293985000                       # number of ReadReq miss cycles
system.cpu.icache.ReadReq_miss_latency::total  95293985000                       # number of ReadReq miss cycles
system.cpu.icache.demand_miss_latency::cpu.inst  95293985000                       # number of demand (read+write) miss cycles
system.cpu.icache.demand_miss_latency::total  95293985000                       # number of demand (read+write) miss cycles
system.cpu.icache.overall_miss_latency::cpu.inst  95293985000                       # number of overall miss cycles
system.cpu.icache.overall_miss_latency::total  95293985000                       # number of overall miss cycles
system.cpu.icache.ReadReq_accesses::cpu.inst     97482980                       # number of ReadReq accesses(hits+misses)
system.cpu.icache.ReadReq_accesses::total     97482980                       # number of ReadReq accesses(hits+misses)
system.cpu.icache.demand_accesses::cpu.inst     97482980                       # number of demand (read+write) accesses
system.cpu.icache.demand_accesses::total     97482980                       # number of demand (read+write) accesses
system.cpu.icache.overall_accesses::cpu.inst     97482980                       # number of overall (read+write) accesses
system.cpu.icache.overall_accesses::total     97482980                       # number of overall (read+write) accesses
system.cpu.icache.ReadReq_miss_rate::cpu.inst     0.016917                       # miss rate for ReadReq accesses
system.cpu.icache.ReadReq_miss_rate::total     0.016917                       # miss rate for ReadReq accesses
system.cpu.icache.demand_miss_rate::cpu.inst     0.016917                       # miss rate for demand accesses
system.cpu.icache.demand_miss_rate::total     0.016917                       # miss rate for demand accesses
system.cpu.icache.overall_miss_rate::cpu.inst     0.016917                       # miss rate for overall accesses
system.cpu.icache.overall_miss_rate::total     0.016917                       # miss rate for overall accesses
system.cpu.icache.ReadReq_avg_miss_latency::cpu.inst 57784.328362                       # average ReadReq miss latency
system.cpu.icache.ReadReq_avg_miss_latency::total 57784.328362                       # average ReadReq miss latency
system.cpu.icache.demand_avg_miss_latency::cpu.inst 57784.328362                       # average overall miss latency
system.cpu.icache.demand_avg_miss_latency::total 57784.328362                       # average overall miss latency
system.cpu.icache.overall_avg_miss_latency::cpu.inst 57784.328362                       # average overall miss latency
system.cpu.icache.overall_avg_miss_latency::total 57784.328362                       # average overall miss latency
system.cpu.icache.blocked_cycles::no_mshrs            0                       # number of cycles access was blocked
system.cpu.icache.blocked_cycles::no_targets            0                       # number of cycles access was blocked
system.cpu.icache.blocked::no_mshrs                 0                       # number of cycles access was blocked
system.cpu.icache.blocked::no_targets               0                       # number of cycles access was blocked
system.cpu.icache.avg_blocked_cycles::no_mshrs          nan                       # average number of cycles each access was blocked
system.cpu.icache.avg_blocked_cycles::no_targets          nan                       # average number of cycles each access was blocked
system.cpu.icache.writebacks::writebacks      1648906                       # number of writebacks
system.cpu.icache.writebacks::total           1648906                       # number of writebacks
system.cpu.icache.ReadReq_mshr_misses::cpu.inst      1649132                       # number of ReadReq MSHR misses
system.cpu.icache.ReadReq_mshr_misses::total      1649132                       # number of ReadReq MSHR misses
system.cpu.icache.demand_mshr_misses::cpu.inst      1649132                       # number of demand (read+write) MSHR misses
system.cpu.icache.demand_mshr_misses::total      1649132                       # number of demand (read+write) MSHR misses
system.cpu.icache.overall_mshr_misses::cpu.inst      1649132                       # number of overall MSHR misses
system.cpu.icache.overall_mshr_misses::total      1649132                       # number of overall MSHR misses
system.cpu.icache.ReadReq_mshr_miss_latency::cpu.inst  93644853000                       # number of ReadReq MSHR miss cycles
system.cpu.icache.ReadReq_mshr_miss_latency::total  93644853000                       # number of ReadReq MSHR miss cycles
system.cpu.icache.demand_mshr_miss_latency::cpu.inst  93644853000                       # number of demand (read+write) MSHR miss cycles
system.cpu.icache.demand_mshr_miss_latency::total  93644853000                       # number of demand (read+write) MSHR miss cycles
system.cpu.icache.overall_mshr_miss_latency::cpu.inst  93644853000                       # number of overall MSHR miss cycles
[...]
system.l2.overall_avg_mshr_uncacheable_latency::cpu.data 120041.860465                       # average overall mshr uncacheable latency
system.l2.overall_avg_mshr_uncacheable_latency::total 120041.860465                       # average overall mshr uncacheable latency
system.membus.snoop_filter.tot_requests         98008                       # Total number of requests made to the snoop filter.
system.membus.snoop_filter.hit_single_requests        49838                       # Number of requests hitting in the snoop filter with a single holder of the requested data.
system.membus.snoop_filter.hit_multi_requests           29                       # Number of requests hitting in the snoop filter with multiple (>1) holders of the requested data.
system.membus.snoop_filter.tot_snoops               0                       # Total number of snoops made to the snoop filter.
system.membus.snoop_filter.hit_single_snoops            0                       # Number of snoops hitting in the snoop filter with a single holder of the requested data.
system.membus.snoop_filter.hit_multi_snoops            0                       # Number of snoops hitting in the snoop filter with multiple (>1) holders of the requested data.
system.membus.pwrStateResidencyTicks::UNDEFINED   7186249000                       # Cumulative time (in ticks) in various power states
system.membus.trans_dist::ReadReq                 610                       # Transaction distribution
system.membus.trans_dist::ReadResp              35656                       # Transaction distribution
system.membus.trans_dist::WriteReq                465                       # Transaction distribution
system.membus.trans_dist::WriteResp               465                       # Transaction distribution
system.membus.trans_dist::WritebackDirty        16540                       # Transaction distribution
system.membus.trans_dist::CleanEvict            31643                       # Transaction distribution
system.membus.trans_dist::UpgradeReq                1                       # Transaction distribution
system.membus.trans_dist::ReadExReq              7509                       # Transaction distribution
system.membus.trans_dist::ReadExResp             7509                       # Transaction distribution
system.membus.trans_dist::ReadSharedReq         35046                       # Transaction distribution
system.membus.trans_dist::InvalidateReq          5664                       # Transaction distribution
system.membus.pkt_count_system.iocache.mem_side::system.mem_ctrls.port        11382                       # Packet count per connected master and slave (bytes)
system.membus.pkt_count_system.iocache.mem_side::total        11382                       # Packet count per connected master and slave (bytes)
system.membus.pkt_count_system.l2.mem_side::system.bridge.slave         2150                       # Packet count per connected master and slave (bytes)
system.membus.pkt_count_system.l2.mem_side::system.mem_ctrls.port       127549                       # Packet count per connected master and slave (bytes)
system.membus.pkt_count_system.l2.mem_side::total       129699                       # Packet count per connected master and slave (bytes)
system.membus.pkt_count::total                 141081                       # Packet count per connected master and slave (bytes)
system.membus.pkt_size_system.iocache.mem_side::system.mem_ctrls.port       724992                       # Cumulative packet size per connected master and slave (bytes)
system.membus.pkt_size_system.iocache.mem_side::total       724992                       # Cumulative packet size per connected master and slave (bytes)
system.membus.pkt_size_system.l2.mem_side::system.bridge.slave         1743                       # Cumulative packet size per connected master and slave (bytes)
system.membus.pkt_size_system.l2.mem_side::system.mem_ctrls.port      6835712                       # Cumulative packet size per connected master and slave (bytes)
system.membus.pkt_size_system.l2.mem_side::total      6837455                       # Cumulative packet size per connected master and slave (bytes)
system.membus.pkt_size::total                 7562447                       # Cumulative packet size per connected master and slave (bytes)
system.membus.snoops                               27                       # Total snoops (count)
system.membus.snoopTraffic                       3456                       # Total snoop traffic (bytes)
system.membus.snoop_fanout::samples             49295                       # Request fanout histogram
system.membus.snoop_fanout::mean             0.000568                       # Request fanout histogram
system.membus.snoop_fanout::stdev            0.023826                       # Request fanout histogram
system.membus.snoop_fanout::underflows              0      0.00%      0.00% # Request fanout histogram
system.membus.snoop_fanout::0                   49267     99.94%     99.94% # Request fanout histogram
system.membus.snoop_fanout::1                      28      0.06%    100.00% # Request fanout histogram
system.membus.snoop_fanout::2                       0      0.00%    100.00% # Request fanout histogram
system.membus.snoop_fanout::overflows               0      0.00%    100.00% # Request fanout histogram
system.membus.snoop_fanout::min_value               0                       # Request fanout histogram
system.membus.snoop_fanout::max_value               1                       # Request fanout histogram
system.membus.snoop_fanout::total               49295                       # Request fanout histogram
system.membus.reqLayer0.occupancy             1784500                       # Layer occupancy (ticks)
system.membus.reqLayer0.utilization               0.0                       # Layer utilization (%)
system.membus.reqLayer1.occupancy           232534431                       # Layer occupancy (ticks)
system.membus.reqLayer1.utilization               3.2                       # Layer utilization (%)
system.membus.respLayer1.occupancy             257013                       # Layer occupancy (ticks)
system.membus.respLayer1.utilization              0.0                       # Layer utilization (%)
system.membus.respLayer2.occupancy          402098500                       # Layer occupancy (ticks)
system.membus.respLayer2.utilization              5.6                       # Layer utilization (%)
system.membus.badaddr_responder.pwrStateResidencyTicks::UNDEFINED   7186249000                       # Cumulative time (in ticks) in various power states
system.tol2bus.snoop_filter.tot_requests       144196                       # Total number of requests made to the snoop filter.
system.tol2bus.snoop_filter.hit_single_requests        72103                       # Number of requests hitting in the snoop filter with a single holder of the requested data.
system.tol2bus.snoop_filter.hit_multi_requests          291                       # Number of requests hitting in the snoop filter with multiple (>1) holders of the requested data.
system.tol2bus.snoop_filter.tot_snoops          14719                       # Total number of snoops made to the snoop filter.
system.tol2bus.snoop_filter.hit_single_snoops        14627                       # Number of snoops hitting in the snoop filter with a single holder of the requested data.
system.tol2bus.snoop_filter.hit_multi_snoops           92                       # Number of snoops hitting in the snoop filter with multiple (>1) holders of the requested data.
system.tol2bus.pwrStateResidencyTicks::UNDEFINED   7186249000                       # Cumulative time (in ticks) in various power states
system.tol2bus.trans_dist::ReadReq                610                       # Transaction distribution
system.tol2bus.trans_dist::ReadResp             64352                       # Transaction distribution
system.tol2bus.trans_dist::WriteReq               465                       # Transaction distribution
system.tol2bus.trans_dist::WriteResp              465                       # Transaction distribution
system.tol2bus.trans_dist::WritebackDirty        25282                       # Transaction distribution
system.tol2bus.trans_dist::WritebackClean        41199                       # Transaction distribution
system.tol2bus.trans_dist::CleanEvict           57348                       # Transaction distribution
system.tol2bus.trans_dist::UpgradeReq               1                       # Transaction distribution
system.tol2bus.trans_dist::UpgradeResp              1                       # Transaction distribution
system.tol2bus.trans_dist::ReadExReq             8383                       # Transaction distribution
system.tol2bus.trans_dist::ReadExResp            8383                       # Transaction distribution
system.tol2bus.trans_dist::ReadCleanReq         41202                       # Transaction distribution
system.tol2bus.trans_dist::ReadSharedReq        22541                       # Transaction distribution
system.tol2bus.trans_dist::InvalidateReq            1                       # Transaction distribution
system.tol2bus.pkt_count_system.cpu.icache.mem_side::system.l2.cpu_side       123603                       # Packet count per connected master and slave (bytes)
system.tol2bus.pkt_count_system.cpu.dcache.mem_side::system.l2.cpu_side        94869                       # Packet count per connected master and slave (bytes)
system.tol2bus.pkt_count::total                218472                       # Packet count per connected master and slave (bytes)
system.tol2bus.pkt_size_system.cpu.icache.mem_side::system.l2.cpu_side     10547328                       # Cumulative packet size per connected master and slave (bytes)
system.tol2bus.pkt_size_system.cpu.dcache.mem_side::system.l2.cpu_side      5803855                       # Cumulative packet size per connected master and slave (bytes)
system.tol2bus.pkt_size::total               16351183                       # Cumulative packet size per connected master and slave (bytes)
system.tol2bus.snoops                           51787                       # Total snoops (count)
system.tol2bus.snoopTraffic                   1395456                       # Total snoop traffic (bytes)
system.tol2bus.snoop_fanout::samples           124936                       # Request fanout histogram
system.tol2bus.snoop_fanout::mean            0.120886                       # Request fanout histogram
system.tol2bus.snoop_fanout::stdev           0.328247                       # Request fanout histogram
system.tol2bus.snoop_fanout::underflows             0      0.00%      0.00% # Request fanout histogram
system.tol2bus.snoop_fanout::0                 109925     87.99%     87.99% # Request fanout histogram
system.tol2bus.snoop_fanout::1                  14919     11.94%     99.93% # Request fanout histogram
system.tol2bus.snoop_fanout::2                     92      0.07%    100.00% # Request fanout histogram
system.tol2bus.snoop_fanout::overflows              0      0.00%    100.00% # Request fanout histogram
system.tol2bus.snoop_fanout::min_value              0                       # Request fanout histogram
system.tol2bus.snoop_fanout::max_value              2                       # Request fanout histogram
system.tol2bus.snoop_fanout::total             124936                       # Request fanout histogram
system.tol2bus.reqLayer0.occupancy          184078000                       # Layer occupancy (ticks)
system.tol2bus.reqLayer0.utilization              2.6                       # Layer utilization (%)
system.tol2bus.snoopLayer0.occupancy            71986                       # Layer occupancy (ticks)
system.tol2bus.snoopLayer0.utilization            0.0                       # Layer utilization (%)
system.tol2bus.respLayer0.occupancy         103005000                       # Layer occupancy (ticks)
system.tol2bus.respLayer0.utilization             1.4                       # Layer utilization (%)
system.tol2bus.respLayer1.occupancy          78085500                       # Layer occupancy (ticks)
system.tol2bus.respLayer1.utilization             1.1                       # Layer utilization (%)
system.tsunami.backdoor.pwrStateResidencyTicks::UNDEFINED   7186249000                       # Cumulative time (in ticks) in various power states
system.tsunami.cchip.pwrStateResidencyTicks::UNDEFINED   7186249000                       # Cumulative time (in ticks) in various power states
system.tsunami.pchip.pwrStateResidencyTicks::UNDEFINED   7186249000                       # Cumulative time (in ticks) in various power states
system.tsunami.ethernet.pwrStateResidencyTicks::UNDEFINED   7186249000                       # Cumulative time (in ticks) in various power states
system.tsunami.ethernet.descDMAReads                0                       # Number of descriptors the device read w/ DMA
system.tsunami.ethernet.descDMAWrites               0                       # Number of descriptors the device wrote w/ DMA
system.tsunami.ethernet.descDmaReadBytes            0                       # number of descriptor bytes read w/ DMA
system.tsunami.ethernet.descDmaWriteBytes            0                       # number of descriptor bytes write w/ DMA
system.tsunami.ethernet.postedSwi                   0                       # number of software interrupts posted to CPU
system.tsunami.ethernet.coalescedSwi              nan                       # average number of Swi's coalesced into each post
system.tsunami.ethernet.totalSwi                    0                       # total number of Swi written to ISR
system.tsunami.ethernet.postedRxIdle                0                       # number of rxIdle interrupts posted to CPU
system.tsunami.ethernet.coalescedRxIdle           nan                       # average number of RxIdle's coalesced into each post
system.tsunami.ethernet.totalRxIdle                 0                       # total number of RxIdle written to ISR
system.tsunami.ethernet.postedRxOk                  0                       # number of RxOk interrupts posted to CPU
system.tsunami.ethernet.coalescedRxOk             nan                       # average number of RxOk's coalesced into each post
system.tsunami.ethernet.totalRxOk                   0                       # total number of RxOk written to ISR
system.tsunami.ethernet.postedRxDesc                0                       # number of RxDesc interrupts posted to CPU
system.tsunami.ethernet.coalescedRxDesc           nan                       # average number of RxDesc's coalesced into each post
system.tsunami.ethernet.totalRxDesc                 0                       # total number of RxDesc written to ISR
system.tsunami.ethernet.postedTxOk                  0                       # number of TxOk interrupts posted to CPU
system.tsunami.ethernet.coalescedTxOk             nan                       # average number of TxOk's coalesced into each post
system.tsunami.ethernet.totalTxOk                   0                       # total number of TxOk written to ISR
system.tsunami.ethernet.postedTxIdle                0                       # number of TxIdle interrupts posted to CPU
system.tsunami.ethernet.coalescedTxIdle           nan                       # average number of TxIdle's coalesced into each post
system.tsunami.ethernet.totalTxIdle                 0                       # total number of TxIdle written to ISR
system.tsunami.ethernet.postedTxDesc                0                       # number of TxDesc interrupts posted to CPU
system.tsunami.ethernet.coalescedTxDesc           nan                       # average number of TxDesc's coalesced into each post
system.tsunami.ethernet.totalTxDesc                 0                       # total number of TxDesc written to ISR
system.tsunami.ethernet.postedRxOrn                 0                       # number of RxOrn posted to CPU
system.tsunami.ethernet.coalescedRxOrn            nan                       # average number of RxOrn's coalesced into each post
system.tsunami.ethernet.totalRxOrn                  0                       # total number of RxOrn written to ISR
system.tsunami.ethernet.coalescedTotal            nan                       # average number of interrupts coalesced into each post
system.tsunami.ethernet.postedInterrupts            0                       # number of posts to CPU
system.tsunami.ethernet.droppedPackets              0                       # number of packets dropped
system.tsunami.fake_OROM.pwrStateResidencyTicks::UNDEFINED   7186249000                       # Cumulative time (in ticks) in various power states
system.tsunami.fake_ata0.pwrStateResidencyTicks::UNDEFINED   7186249000                       # Cumulative time (in ticks) in various power states
system.tsunami.fake_ata1.pwrStateResidencyTicks::UNDEFINED   7186249000                       # Cumulative time (in ticks) in various power states
system.tsunami.fake_pnp_addr.pwrStateResidencyTicks::UNDEFINED   7186249000                       # Cumulative time (in ticks) in various power states
system.tsunami.fake_pnp_read0.pwrStateResidencyTicks::UNDEFINED   7186249000                       # Cumulative time (in ticks) in various power states
system.tsunami.fake_pnp_read1.pwrStateResidencyTicks::UNDEFINED   7186249000                       # Cumulative time (in ticks) in various power states
system.tsunami.fake_pnp_read2.pwrStateResidencyTicks::UNDEFINED   7186249000                       # Cumulative time (in ticks) in various power states
system.tsunami.fake_pnp_read3.pwrStateResidencyTicks::UNDEFINED   7186249000                       # Cumulative time (in ticks) in various power states
system.tsunami.fake_pnp_read4.pwrStateResidencyTicks::UNDEFINED   7186249000                       # Cumulative time (in ticks) in various power states
system.tsunami.fake_pnp_read5.pwrStateResidencyTicks::UNDEFINED   7186249000                       # Cumulative time (in ticks) in various power states
system.tsunami.fake_pnp_read6.pwrStateResidencyTicks::UNDEFINED   7186249000                       # Cumulative time (in ticks) in various power states
system.tsunami.fake_pnp_read7.pwrStateResidencyTicks::UNDEFINED   7186249000                       # Cumulative time (in ticks) in various power states
system.tsunami.fake_pnp_write.pwrStateResidencyTicks::UNDEFINED   7186249000                       # Cumulative time (in ticks) in various power states
system.tsunami.fake_ppc.pwrStateResidencyTicks::UNDEFINED   7186249000                       # Cumulative time (in ticks) in various power states
system.tsunami.fake_sm_chip.pwrStateResidencyTicks::UNDEFINED   7186249000                       # Cumulative time (in ticks) in various power states
system.tsunami.fake_uart1.pwrStateResidencyTicks::UNDEFINED   7186249000                       # Cumulative time (in ticks) in various power states
system.tsunami.fake_uart2.pwrStateResidencyTicks::UNDEFINED   7186249000                       # Cumulative time (in ticks) in various power states
system.tsunami.fake_uart3.pwrStateResidencyTicks::UNDEFINED   7186249000                       # Cumulative time (in ticks) in various power states
system.tsunami.fake_uart4.pwrStateResidencyTicks::UNDEFINED   7186249000                       # Cumulative time (in ticks) in various power states
system.tsunami.fb.pwrStateResidencyTicks::UNDEFINED   7186249000                       # Cumulative time (in ticks) in various power states
system.tsunami.ide.pwrStateResidencyTicks::UNDEFINED   7186249000                       # Cumulative time (in ticks) in various power states
system.tsunami.io.pwrStateResidencyTicks::UNDEFINED   7186249000                       # Cumulative time (in ticks) in various power states
system.tsunami.uart.pwrStateResidencyTicks::UNDEFINED   7186249000                       # Cumulative time (in ticks) in various power states

---------- End Simulation Statistics   ----------
