
---------- Begin Simulation Statistics ----------
sim_seconds                                  2.693183                       # Number of seconds simulated
sim_ticks                                2693182967500                       # Number of ticks simulated
final_tick                               2693182967500                       # Number of ticks from beginning of simulation (restored from checkpoints and never reset)
sim_freq                                 1000000000000                       # Frequency of simulated ticks
host_inst_rate                                 170748                       # Simulator instruction rate (inst/s)
host_op_rate                                   170748                       # Simulator op (including micro ops) rate (op/s)
host_tick_rate                             4717380019                       # Simulator tick rate (ticks/s)
host_mem_usage                                 733028                       # Number of bytes of host memory used
host_seconds                                   570.91                       # Real time elapsed on the host
sim_insts                                    97481406                       # Number of instructions simulated
sim_ops                                      97481406                       # Number of ops (including micro ops) simulated
system.voltage_domain.voltage                       1                       # Voltage in Volts
system.clk_domain.clock                          1000                       # Clock period in ticks
system.mem_ctrls.pwrStateResidencyTicks::UNDEFINED 2693182967500                       # Cumulative time (in ticks) in various power states
system.mem_ctrls.bytes_read::cpu.inst        34155552                       # Number of bytes read from this memory
system.mem_ctrls.bytes_read::cpu.data       101194176                       # Number of bytes read from this memory
system.mem_ctrls.bytes_read::tsunami.ide         4032                       # Number of bytes read from this memory
system.mem_ctrls.bytes_read::total          135353760                       # Number of bytes read from this memory
system.mem_ctrls.bytes_inst_read::cpu.inst     34155552                       # Number of instructions bytes read from this memory
system.mem_ctrls.bytes_inst_read::total      34155552                       # Number of instructions bytes read from this memory
system.mem_ctrls.bytes_written::writebacks     28585600                       # Number of bytes written to this memory
system.mem_ctrls.bytes_written::total        28585600                       # Number of bytes written to this memory
system.mem_ctrls.num_reads::cpu.inst          1067361                       # Number of read requests responded to by this memory
system.mem_ctrls.num_reads::cpu.data          3162318                       # Number of read requests responded to by this memory
system.mem_ctrls.num_reads::tsunami.ide           126                       # Number of read requests responded to by this memory
system.mem_ctrls.num_reads::total             4229805                       # Number of read requests responded to by this memory
system.mem_ctrls.num_writes::writebacks        893300                       # Number of write requests responded to by this memory
system.mem_ctrls.num_writes::total             893300                       # Number of write requests responded to by this memory
system.mem_ctrls.bw_read::cpu.inst           12682225                       # Total read bandwidth from this memory (bytes/s)
system.mem_ctrls.bw_read::cpu.data           37574193                       # Total read bandwidth from this memory (bytes/s)
system.mem_ctrls.bw_read::tsunami.ide            1497                       # Total read bandwidth from this memory (bytes/s)
system.mem_ctrls.bw_read::total              50257915                       # Total read bandwidth from this memory (bytes/s)
system.mem_ctrls.bw_inst_read::cpu.inst      12682225                       # Instruction read bandwidth from this memory (bytes/s)
system.mem_ctrls.bw_inst_read::total         12682225                       # Instruction read bandwidth from this memory (bytes/s)
system.mem_ctrls.bw_write::writebacks        10614058                       # Write bandwidth from this memory (bytes/s)
system.mem_ctrls.bw_write::total             10614058                       # Write bandwidth from this memory (bytes/s)
system.mem_ctrls.bw_total::writebacks        10614058                       # Total bandwidth to/from this memory (bytes/s)
system.mem_ctrls.bw_total::cpu.inst          12682225                       # Total bandwidth to/from this memory (bytes/s)
system.mem_ctrls.bw_total::cpu.data          37574193                       # Total bandwidth to/from this memory (bytes/s)
system.mem_ctrls.bw_total::tsunami.ide           1497                       # Total bandwidth to/from this memory (bytes/s)
system.mem_ctrls.bw_total::total             60871973                       # Total bandwidth to/from this memory (bytes/s)
system.mem_ctrls.readReqs                     4229805                       # Number of read requests accepted
system.mem_ctrls.writeReqs                     893300                       # Number of write requests accepted
system.mem_ctrls.readBursts                   4229805                       # Number of DRAM read bursts, including those serviced by the write queue
system.mem_ctrls.writeBursts                   893300                       # Number of DRAM write bursts, including those merged in the write queue
system.mem_ctrls.bytesReadDRAM              269904512                       # Total number of bytes read from DRAM
system.mem_ctrls.bytesReadWrQ                  803008                       # Total number of bytes read from write queue
system.mem_ctrls.bytesWritten                42378368                       # Total number of bytes written to DRAM
system.mem_ctrls.bytesReadSys               135353760                       # Total read bytes from the system interface side
system.mem_ctrls.bytesWrittenSys             28585600                       # Total written bytes from the system interface side
system.mem_ctrls.servicedByWrQ                  12547                       # Number of DRAM read bursts serviced by the write queue
system.mem_ctrls.mergedWrBursts                231106                       # Number of DRAM write bursts merged with an existing one
system.mem_ctrls.neitherReadNorWriteReqs            0                       # Number of requests that are neither read nor write
system.mem_ctrls.perBankRdBursts::0            264392                       # Per bank write bursts
system.mem_ctrls.perBankRdBursts::1            215610                       # Per bank write bursts
system.mem_ctrls.perBankRdBursts::2            336993                       # Per bank write bursts
system.mem_ctrls.perBankRdBursts::3            184899                       # Per bank write bursts
system.mem_ctrls.perBankRdBursts::4            204742                       # Per bank write bursts
system.mem_ctrls.perBankRdBursts::5            236493                       # Per bank write bursts
system.mem_ctrls.perBankRdBursts::6            211094                       # Per bank write bursts
system.mem_ctrls.perBankRdBursts::7            267128                       # Per bank write bursts
system.mem_ctrls.perBankRdBursts::8            323050                       # Per bank write bursts
system.mem_ctrls.perBankRdBursts::9            308899                       # Per bank write bursts
system.mem_ctrls.perBankRdBursts::10           241954                       # Per bank write bursts
system.mem_ctrls.perBankRdBursts::11           352078                       # Per bank write bursts
system.mem_ctrls.perBankRdBursts::12           238908                       # Per bank write bursts
system.mem_ctrls.perBankRdBursts::13           303461                       # Per bank write bursts
system.mem_ctrls.perBankRdBursts::14           248114                       # Per bank write bursts
system.mem_ctrls.perBankRdBursts::15           279443                       # Per bank write bursts
system.mem_ctrls.perBankWrBursts::0             38069                       # Per bank write bursts
system.mem_ctrls.perBankWrBursts::1             42840                       # Per bank write bursts
system.mem_ctrls.perBankWrBursts::2             29954                       # Per bank write bursts
system.mem_ctrls.perBankWrBursts::3             34353                       # Per bank write bursts
system.mem_ctrls.perBankWrBursts::4             32572                       # Per bank write bursts
system.mem_ctrls.perBankWrBursts::5             41653                       # Per bank write bursts
system.mem_ctrls.perBankWrBursts::6             34280                       # Per bank write bursts
system.mem_ctrls.perBankWrBursts::7             37575                       # Per bank write bursts
system.mem_ctrls.perBankWrBursts::8             43718                       # Per bank write bursts
system.mem_ctrls.perBankWrBursts::9             65519                       # Per bank write bursts
system.mem_ctrls.perBankWrBursts::10            51220                       # Per bank write bursts
system.mem_ctrls.perBankWrBursts::11            46440                       # Per bank write bursts
system.mem_ctrls.perBankWrBursts::12            34385                       # Per bank write bursts
system.mem_ctrls.perBankWrBursts::13            55965                       # Per bank write bursts
system.mem_ctrls.perBankWrBursts::14            32246                       # Per bank write bursts
system.mem_ctrls.perBankWrBursts::15            41373                       # Per bank write bursts
system.mem_ctrls.numRdRetry                         0                       # Number of times read queue was full causing retry
system.mem_ctrls.numWrRetry                         0                       # Number of times write queue was full causing retry
system.mem_ctrls.totGap                  2693182954500                       # Total gap between requests
system.mem_ctrls.readPktSize::0                     0                       # Read request sizes (log2)
system.mem_ctrls.readPktSize::1                     0                       # Read request sizes (log2)
system.mem_ctrls.readPktSize::2                     0                       # Read request sizes (log2)
system.mem_ctrls.readPktSize::3                     0                       # Read request sizes (log2)
system.mem_ctrls.readPktSize::4                     0                       # Read request sizes (log2)
system.mem_ctrls.readPktSize::5               4229805                       # Read request sizes (log2)
system.mem_ctrls.readPktSize::6                     0                       # Read request sizes (log2)
system.mem_ctrls.writePktSize::0                    0                       # Write request sizes (log2)
system.mem_ctrls.writePktSize::1                    0                       # Write request sizes (log2)
system.mem_ctrls.writePktSize::2                    0                       # Write request sizes (log2)
system.mem_ctrls.writePktSize::3                    0                       # Write request sizes (log2)
system.mem_ctrls.writePktSize::4                    0                       # Write request sizes (log2)
system.mem_ctrls.writePktSize::5               893300                       # Write request sizes (log2)
system.mem_ctrls.writePktSize::6                    0                       # Write request sizes (log2)
system.mem_ctrls.rdQLenPdf::0                 4217127                       # What read queue length does an incoming req see
system.mem_ctrls.rdQLenPdf::1                       4                       # What read queue length does an incoming req see
system.mem_ctrls.rdQLenPdf::2                       5                       # What read queue length does an incoming req see
system.mem_ctrls.rdQLenPdf::3                       5                       # What read queue length does an incoming req see
system.mem_ctrls.rdQLenPdf::4                       8                       # What read queue length does an incoming req see
system.mem_ctrls.rdQLenPdf::5                       9                       # What read queue length does an incoming req see
system.mem_ctrls.rdQLenPdf::6                       7                       # What read queue length does an incoming req see
system.mem_ctrls.rdQLenPdf::7                       8                       # What read queue length does an incoming req see
system.mem_ctrls.rdQLenPdf::8                      25                       # What read queue length does an incoming req see
system.mem_ctrls.rdQLenPdf::9                      21                       # What read queue length does an incoming req see
system.mem_ctrls.rdQLenPdf::10                      6                       # What read queue length does an incoming req see
system.mem_ctrls.rdQLenPdf::11                      6                       # What read queue length does an incoming req see
system.mem_ctrls.rdQLenPdf::12                      4                       # What read queue length does an incoming req see
system.mem_ctrls.rdQLenPdf::13                      4                       # What read queue length does an incoming req see
system.mem_ctrls.rdQLenPdf::14                      4                       # What read queue length does an incoming req see
system.mem_ctrls.rdQLenPdf::15                      5                       # What read queue length does an incoming req see
system.mem_ctrls.rdQLenPdf::16                      3                       # What read queue length does an incoming req see
system.mem_ctrls.rdQLenPdf::17                      3                       # What read queue length does an incoming req see
system.mem_ctrls.rdQLenPdf::18                      2                       # What read queue length does an incoming req see
system.mem_ctrls.rdQLenPdf::19                      1                       # What read queue length does an incoming req see
system.mem_ctrls.rdQLenPdf::20                      1                       # What read queue length does an incoming req see
system.mem_ctrls.rdQLenPdf::21                      0                       # What read queue length does an incoming req see
system.mem_ctrls.rdQLenPdf::22                      0                       # What read queue length does an incoming req see
system.mem_ctrls.rdQLenPdf::23                      0                       # What read queue length does an incoming req see
system.mem_ctrls.rdQLenPdf::24                      0                       # What read queue length does an incoming req see
system.mem_ctrls.rdQLenPdf::25                      0                       # What read queue length does an incoming req see
system.mem_ctrls.rdQLenPdf::26                      0                       # What read queue length does an incoming req see
system.mem_ctrls.rdQLenPdf::27                      0                       # What read queue length does an incoming req see
system.mem_ctrls.rdQLenPdf::28                      0                       # What read queue length does an incoming req see
system.mem_ctrls.rdQLenPdf::29                      0                       # What read queue length does an incoming req see
system.mem_ctrls.rdQLenPdf::30                      0                       # What read queue length does an incoming req see
system.mem_ctrls.rdQLenPdf::31                      0                       # What read queue length does an incoming req see
system.mem_ctrls.wrQLenPdf::0                       1                       # What write queue length does an incoming req see
system.mem_ctrls.wrQLenPdf::1                       1                       # What write queue length does an incoming req see
system.mem_ctrls.wrQLenPdf::2                       1                       # What write queue length does an incoming req see
system.mem_ctrls.wrQLenPdf::3                       1                       # What write queue length does an incoming req see
system.mem_ctrls.wrQLenPdf::4                       1                       # What write queue length does an incoming req see
system.mem_ctrls.wrQLenPdf::5                       1                       # What write queue length does an incoming req see
system.mem_ctrls.wrQLenPdf::6                       1                       # What write queue length does an incoming req see
system.mem_ctrls.wrQLenPdf::7                       1                       # What write queue length does an incoming req see
system.mem_ctrls.wrQLenPdf::8                       1                       # What write queue length does an incoming req see
system.mem_ctrls.wrQLenPdf::9                       1                       # What write queue length does an incoming req see
system.mem_ctrls.wrQLenPdf::10                      1                       # What write queue length does an incoming req see
system.mem_ctrls.wrQLenPdf::11                      1                       # What write queue length does an incoming req see
system.mem_ctrls.wrQLenPdf::12                      1                       # What write queue length does an incoming req see
system.mem_ctrls.wrQLenPdf::13                      1                       # What write queue length does an incoming req see
system.mem_ctrls.wrQLenPdf::14                      1                       # What write queue length does an incoming req see
system.mem_ctrls.wrQLenPdf::15                   4357                       # What write queue length does an incoming req see
system.mem_ctrls.wrQLenPdf::16                   4900                       # What write queue length does an incoming req see
system.mem_ctrls.wrQLenPdf::17                  37575                       # What write queue length does an incoming req see
system.mem_ctrls.wrQLenPdf::18                  38809                       # What write queue length does an incoming req see
system.mem_ctrls.wrQLenPdf::19                  39038                       # What write queue length does an incoming req see
system.mem_ctrls.wrQLenPdf::20                  39342                       # What write queue length does an incoming req see
system.mem_ctrls.wrQLenPdf::21                  39558                       # What write queue length does an incoming req see
system.mem_ctrls.wrQLenPdf::22                  39857                       # What write queue length does an incoming req see
system.mem_ctrls.wrQLenPdf::23                  40696                       # What write queue length does an incoming req see
system.mem_ctrls.wrQLenPdf::24                  41165                       # What write queue length does an incoming req see
system.mem_ctrls.wrQLenPdf::25                  41691                       # What write queue length does an incoming req see
system.mem_ctrls.wrQLenPdf::26                  42783                       # What write queue length does an incoming req see
system.mem_ctrls.wrQLenPdf::27                  42208                       # What write queue length does an incoming req see
system.mem_ctrls.wrQLenPdf::28                  41917                       # What write queue length does an incoming req see
system.mem_ctrls.wrQLenPdf::29                  42141                       # What write queue length does an incoming req see
system.mem_ctrls.wrQLenPdf::30                  41354                       # What write queue length does an incoming req see
system.mem_ctrls.wrQLenPdf::31                  40855                       # What write queue length does an incoming req see
system.mem_ctrls.wrQLenPdf::32                  40728                       # What write queue length does an incoming req see
system.mem_ctrls.wrQLenPdf::33                    349                       # What write queue length does an incoming req see
system.mem_ctrls.wrQLenPdf::34                    346                       # What write queue length does an incoming req see
system.mem_ctrls.wrQLenPdf::35                    257                       # What write queue length does an incoming req see
system.mem_ctrls.wrQLenPdf::36                    255                       # What write queue length does an incoming req see
system.mem_ctrls.wrQLenPdf::37                    212                       # What write queue length does an incoming req see
system.mem_ctrls.wrQLenPdf::38                    227                       # What write queue length does an incoming req see
system.mem_ctrls.wrQLenPdf::39                    198                       # What write queue length does an incoming req see
system.mem_ctrls.wrQLenPdf::40                    189                       # What write queue length does an incoming req see
system.mem_ctrls.wrQLenPdf::41                    176                       # What write queue length does an incoming req see
system.mem_ctrls.wrQLenPdf::42                    163                       # What write queue length does an incoming req see
system.mem_ctrls.wrQLenPdf::43                    154                       # What write queue length does an incoming req see
system.mem_ctrls.wrQLenPdf::44                    132                       # What write queue length does an incoming req see
system.mem_ctrls.wrQLenPdf::45                    105                       # What write queue length does an incoming req see
system.mem_ctrls.wrQLenPdf::46                     95                       # What write queue length does an incoming req see
system.mem_ctrls.wrQLenPdf::47                     71                       # What write queue length does an incoming req see
system.mem_ctrls.wrQLenPdf::48                     59                       # What write queue length does an incoming req see
system.mem_ctrls.wrQLenPdf::49                     63                       # What write queue length does an incoming req see
system.mem_ctrls.wrQLenPdf::50                     46                       # What write queue length does an incoming req see
system.mem_ctrls.wrQLenPdf::51                     37                       # What write queue length does an incoming req see
system.mem_ctrls.wrQLenPdf::52                     27                       # What write queue length does an incoming req see
system.mem_ctrls.wrQLenPdf::53                     19                       # What write queue length does an incoming req see
system.mem_ctrls.wrQLenPdf::54                     13                       # What write queue length does an incoming req see
system.mem_ctrls.wrQLenPdf::55                      8                       # What write queue length does an incoming req see
system.mem_ctrls.wrQLenPdf::56                      3                       # What write queue length does an incoming req see
system.mem_ctrls.wrQLenPdf::57                      1                       # What write queue length does an incoming req see
system.mem_ctrls.wrQLenPdf::58                      0                       # What write queue length does an incoming req see
system.mem_ctrls.wrQLenPdf::59                      0                       # What write queue length does an incoming req see
system.mem_ctrls.wrQLenPdf::60                      0                       # What write queue length does an incoming req see
system.mem_ctrls.wrQLenPdf::61                      0                       # What write queue length does an incoming req see
system.mem_ctrls.wrQLenPdf::62                      0                       # What write queue length does an incoming req see
system.mem_ctrls.wrQLenPdf::63                      0                       # What write queue length does an incoming req see
system.mem_ctrls.bytesPerActivate::samples       883155                       # Bytes accessed per row activation
system.mem_ctrls.bytesPerActivate::mean    353.596205                       # Bytes accessed per row activation
system.mem_ctrls.bytesPerActivate::gmean   205.490131                       # Bytes accessed per row activation
system.mem_ctrls.bytesPerActivate::stdev   356.366303                       # Bytes accessed per row activation
system.mem_ctrls.bytesPerActivate::0-127       296929     33.62%     33.62% # Bytes accessed per row activation
system.mem_ctrls.bytesPerActivate::128-255       204684     23.18%     56.80% # Bytes accessed per row activation
system.mem_ctrls.bytesPerActivate::256-383        84458      9.56%     66.36% # Bytes accessed per row activation
system.mem_ctrls.bytesPerActivate::384-511        49148      5.57%     71.93% # Bytes accessed per row activation
system.mem_ctrls.bytesPerActivate::512-639        39491      4.47%     76.40% # Bytes accessed per row activation
system.mem_ctrls.bytesPerActivate::640-767        26507      3.00%     79.40% # Bytes accessed per row activation
system.mem_ctrls.bytesPerActivate::768-895        24021      2.72%     82.12% # Bytes accessed per row activation
system.mem_ctrls.bytesPerActivate::896-1023        17056      1.93%     84.05% # Bytes accessed per row activation
system.mem_ctrls.bytesPerActivate::1024-1151       140861     15.95%    100.00% # Bytes accessed per row activation
system.mem_ctrls.bytesPerActivate::total       883155                       # Bytes accessed per row activation
system.mem_ctrls.rdPerTurnAround::samples        40389                       # Reads before turning the bus around for writes
system.mem_ctrls.rdPerTurnAround::mean     104.415410                       # Reads before turning the bus around for writes
system.mem_ctrls.rdPerTurnAround::stdev   5134.375605                       # Reads before turning the bus around for writes
system.mem_ctrls.rdPerTurnAround::0-32767        40387    100.00%    100.00% # Reads before turning the bus around for writes
system.mem_ctrls.rdPerTurnAround::32768-65535            1      0.00%    100.00% # Reads before turning the bus around for writes
system.mem_ctrls.rdPerTurnAround::1.01581e+06-1.04858e+06            1      0.00%    100.00% # Reads before turning the bus around for writes
system.mem_ctrls.rdPerTurnAround::total         40389                       # Reads before turning the bus around for writes
system.mem_ctrls.wrPerTurnAround::samples        40389                       # Writes before turning the bus around for reads
system.mem_ctrls.wrPerTurnAround::mean      16.394612                       # Writes before turning the bus around for reads
system.mem_ctrls.wrPerTurnAround::gmean     16.331723                       # Writes before turning the bus around for reads
system.mem_ctrls.wrPerTurnAround::stdev      1.944884                       # Writes before turning the bus around for reads
system.mem_ctrls.wrPerTurnAround::16-17         35603     88.15%     88.15% # Writes before turning the bus around for reads
system.mem_ctrls.wrPerTurnAround::18-19          4201     10.40%     98.55% # Writes before turning the bus around for reads
system.mem_ctrls.wrPerTurnAround::20-21           169      0.42%     98.97% # Writes before turning the bus around for reads
system.mem_ctrls.wrPerTurnAround::22-23            81      0.20%     99.17% # Writes before turning the bus around for reads
system.mem_ctrls.wrPerTurnAround::24-25            50      0.12%     99.29% # Writes before turning the bus around for reads
system.mem_ctrls.wrPerTurnAround::26-27           101      0.25%     99.54% # Writes before turning the bus around for reads
system.mem_ctrls.wrPerTurnAround::28-29            26      0.06%     99.61% # Writes before turning the bus around for reads
system.mem_ctrls.wrPerTurnAround::30-31            14      0.03%     99.64% # Writes before turning the bus around for reads
system.mem_ctrls.wrPerTurnAround::32-33            44      0.11%     99.75% # Writes before turning the bus around for reads
system.mem_ctrls.wrPerTurnAround::34-35            12      0.03%     99.78% # Writes before turning the bus around for reads
system.mem_ctrls.wrPerTurnAround::36-37            16      0.04%     99.82% # Writes before turning the bus around for reads
system.mem_ctrls.wrPerTurnAround::38-39            10      0.02%     99.85% # Writes before turning the bus around for reads
system.mem_ctrls.wrPerTurnAround::40-41            37      0.09%     99.94% # Writes before turning the bus around for reads
system.mem_ctrls.wrPerTurnAround::42-43             5      0.01%     99.95% # Writes before turning the bus around for reads
system.mem_ctrls.wrPerTurnAround::44-45             3      0.01%     99.96% # Writes before turning the bus around for reads
system.mem_ctrls.wrPerTurnAround::46-47             3      0.01%     99.97% # Writes before turning the bus around for reads
system.mem_ctrls.wrPerTurnAround::48-49             1      0.00%     99.97% # Writes before turning the bus around for reads
system.mem_ctrls.wrPerTurnAround::50-51             1      0.00%     99.97% # Writes before turning the bus around for reads
system.mem_ctrls.wrPerTurnAround::52-53             1      0.00%     99.97% # Writes before turning the bus around for reads
system.mem_ctrls.wrPerTurnAround::68-69             3      0.01%     99.98% # Writes before turning the bus around for reads
system.mem_ctrls.wrPerTurnAround::70-71             1      0.00%     99.98% # Writes before turning the bus around for reads
system.mem_ctrls.wrPerTurnAround::74-75             2      0.00%     99.99% # Writes before turning the bus around for reads
system.mem_ctrls.wrPerTurnAround::80-81             1      0.00%     99.99% # Writes before turning the bus around for reads
system.mem_ctrls.wrPerTurnAround::88-89             1      0.00%     99.99% # Writes before turning the bus around for reads
system.mem_ctrls.wrPerTurnAround::96-97             2      0.00%    100.00% # Writes before turning the bus around for reads
system.mem_ctrls.wrPerTurnAround::100-101            1      0.00%    100.00% # Writes before turning the bus around for reads
system.mem_ctrls.wrPerTurnAround::total         40389                       # Writes before turning the bus around for reads
system.mem_ctrls.totQLat                  56588532381                       # Total ticks spent queuing
system.mem_ctrls.totMemAccLat            135662119881                       # Total ticks spent from burst creation until serviced by the DRAM
system.mem_ctrls.totBusLat                21086290000                       # Total ticks spent in databus transfers
system.mem_ctrls.avgQLat                     13418.32                       # Average queueing delay per DRAM burst
system.mem_ctrls.avgBusLat                    5000.00                       # Average bus latency per DRAM burst
system.mem_ctrls.avgMemAccLat                32168.32                       # Average memory access latency per DRAM burst
system.mem_ctrls.avgRdBW                       100.22                       # Average DRAM read bandwidth in MiByte/s
system.mem_ctrls.avgWrBW                        15.74                       # Average achieved write bandwidth in MiByte/s
system.mem_ctrls.avgRdBWSys                     50.26                       # Average system read bandwidth in MiByte/s
system.mem_ctrls.avgWrBWSys                     10.61                       # Average system write bandwidth in MiByte/s
system.mem_ctrls.peakBW                      12800.00                       # Theoretical peak bandwidth in MiByte/s
system.mem_ctrls.busUtil                         0.91                       # Data bus utilization in percentage
system.mem_ctrls.busUtilRead                     0.78                       # Data bus utilization in percentage for reads
system.mem_ctrls.busUtilWrite                    0.12                       # Data bus utilization in percentage for writes
system.mem_ctrls.avgRdQLen                       1.00                       # Average read queue length when enqueuing
system.mem_ctrls.avgWrQLen                      23.86                       # Average write queue length when enqueuing
system.mem_ctrls.readRowHits                  3508469                       # Number of row buffer hits during reads
system.mem_ctrls.writeRowHits                  487781                       # Number of row buffer hits during writes
system.mem_ctrls.readRowHitRate                 83.19                       # Row buffer hit rate for reads
system.mem_ctrls.writeRowHitRate                73.66                       # Row buffer hit rate for writes
system.mem_ctrls.avgGap                     525693.49                       # Average gap between requests
system.mem_ctrls.pageHitRate                    81.90                       # Row buffer hit rate, read and write combined
system.mem_ctrls_0.actEnergy               2590956060                       # Energy for activate commands per rank (pJ)
system.mem_ctrls_0.preEnergy               1377099240                       # Energy for precharge commands per rank (pJ)
system.mem_ctrls_0.readEnergy             13718446140                       # Energy for read commands per rank (pJ)
system.mem_ctrls_0.writeEnergy             1520565120                       # Energy for write commands per rank (pJ)
system.mem_ctrls_0.refreshEnergy         35993318400.000008                       # Energy for refresh commands per rank (pJ)
system.mem_ctrls_0.actBackEnergy          42657111090                       # Energy for active background per rank (pJ)
system.mem_ctrls_0.preBackEnergy           1388041440                       # Energy for precharge background per rank (pJ)
system.mem_ctrls_0.actPowerDownEnergy    127396786950                       # Energy for active power-down per rank (pJ)
system.mem_ctrls_0.prePowerDownEnergy     22056442560                       # Energy for precharge power-down per rank (pJ)
system.mem_ctrls_0.selfRefreshEnergy     543882345300                       # Energy for self refresh per rank (pJ)
system.mem_ctrls_0.totalEnergy           792591248940                       # Total energy per rank (pJ)
system.mem_ctrls_0.averagePower            294.295359                       # Core power per rank (mW)
system.mem_ctrls_0.totalIdleTime         2595998653492                       # Total Idle time Per DRAM Rank
system.mem_ctrls_0.memoryStateTime::IDLE   1537534250                       # Time in different power states
system.mem_ctrls_0.memoryStateTime::REF   15244950000                       # Time in different power states
system.mem_ctrls_0.memoryStateTime::SREF 2259181861000                       # Time in different power states
system.mem_ctrls_0.memoryStateTime::PRE_PDN  57438916500                       # Time in different power states
system.mem_ctrls_0.memoryStateTime::ACT   80401437008                       # Time in different power states
system.mem_ctrls_0.memoryStateTime::ACT_PDN 279378268742                       # Time in different power states
system.mem_ctrls_1.actEnergy               3714877740                       # Energy for activate commands per rank (pJ)
system.mem_ctrls_1.preEnergy               1974473985                       # Energy for precharge commands per rank (pJ)
system.mem_ctrls_1.readEnergy             16392775980                       # Energy for read commands per rank (pJ)
system.mem_ctrls_1.writeEnergy             1935920520                       # Energy for write commands per rank (pJ)
system.mem_ctrls_1.refreshEnergy         35143885920.000008                       # Energy for refresh commands per rank (pJ)
system.mem_ctrls_1.actBackEnergy          45966018090                       # Energy for active background per rank (pJ)
system.mem_ctrls_1.preBackEnergy           1223687040                       # Energy for precharge background per rank (pJ)
system.mem_ctrls_1.actPowerDownEnergy    132358943610                       # Energy for active power-down per rank (pJ)
system.mem_ctrls_1.prePowerDownEnergy     14397658560                       # Energy for precharge power-down per rank (pJ)
system.mem_ctrls_1.selfRefreshEnergy     543769733400                       # Energy for self refresh per rank (pJ)
system.mem_ctrls_1.totalEnergy           796884940875                       # Total energy per rank (pJ)
system.mem_ctrls_1.averagePower            295.889641                       # Core power per rank (mW)
system.mem_ctrls_1.totalIdleTime         2589179977743                       # Total Idle time Per DRAM Rank
system.mem_ctrls_1.memoryStateTime::IDLE   1077340250                       # Time in different power states
system.mem_ctrls_1.memoryStateTime::REF   14878364000                       # Time in different power states
system.mem_ctrls_1.memoryStateTime::SREF 2261423392250                       # Time in different power states
system.mem_ctrls_1.memoryStateTime::PRE_PDN  37494607750                       # Time in different power states
system.mem_ctrls_1.memoryStateTime::ACT   88047243757                       # Time in different power states
system.mem_ctrls_1.memoryStateTime::ACT_PDN 290262019493                       # Time in different power states
system.pwrStateResidencyTicks::UNDEFINED 2693182967500                       # Cumulative time (in ticks) in various power states
system.bridge.pwrStateResidencyTicks::UNDEFINED 2693182967500                       # Cumulative time (in ticks) in various power states
system.cpu_voltage_domain.voltage                   1                       # Voltage in Volts
system.cpu_clk_domain.clock                       500                       # Clock period in ticks
system.cpu.dtb.fetch_hits                           0                       # ITB hits
system.cpu.dtb.fetch_misses                         0                       # ITB misses
system.cpu.dtb.fetch_acv                            0                       # ITB acv
system.cpu.dtb.fetch_accesses                       0                       # ITB accesses
system.cpu.dtb.read_hits                     17017504                       # DTB read hits
system.cpu.dtb.read_misses                      12426                       # DTB read misses
system.cpu.dtb.read_acv                            98                       # DTB read access violations
system.cpu.dtb.read_accesses                   816992                       # DTB read accesses
system.cpu.dtb.write_hits                     8895791                       # DTB write hits
system.cpu.dtb.write_misses                      1305                       # DTB write misses
system.cpu.dtb.write_acv                          169                       # DTB write access violations
system.cpu.dtb.write_accesses                  324492                       # DTB write accesses
system.cpu.dtb.data_hits                     25913295                       # DTB hits
system.cpu.dtb.data_misses                      13731                       # DTB misses
system.cpu.dtb.data_acv                           267                       # DTB access violations
system.cpu.dtb.data_accesses                  1141484                       # DTB accesses
system.cpu.itb.fetch_hits                     5686275                       # ITB hits
system.cpu.itb.fetch_misses                      6029                       # ITB misses
system.cpu.itb.fetch_acv                            1                       # ITB acv
system.cpu.itb.fetch_accesses                 5692304                       # ITB accesses
system.cpu.itb.read_hits                            0                       # DTB read hits
system.cpu.itb.read_misses                          0                       # DTB read misses
system.cpu.itb.read_acv                             0                       # DTB read access violations
system.cpu.itb.read_accesses                        0                       # DTB read accesses
system.cpu.itb.write_hits                           0                       # DTB write hits
system.cpu.itb.write_misses                         0                       # DTB write misses
system.cpu.itb.write_acv                            0                       # DTB write access violations
system.cpu.itb.write_accesses                       0                       # DTB write accesses
system.cpu.itb.data_hits                            0                       # DTB hits
system.cpu.itb.data_misses                          0                       # DTB misses
system.cpu.itb.data_acv                             0                       # DTB access violations
system.cpu.itb.data_accesses                        0                       # DTB accesses
system.cpu.numPwrStateTransitions               14146                       # Number of power state transitions
system.cpu.pwrStateClkGateDist::samples          7073                       # Distribution of time spent in the clock gated state
system.cpu.pwrStateClkGateDist::mean     310646516.965927                       # Distribution of time spent in the clock gated state
system.cpu.pwrStateClkGateDist::stdev    452131790.580381                       # Distribution of time spent in the clock gated state
system.cpu.pwrStateClkGateDist::1000-5e+10         7073    100.00%    100.00% # Distribution of time spent in the clock gated state
system.cpu.pwrStateClkGateDist::min_value        68000                       # Distribution of time spent in the clock gated state
system.cpu.pwrStateClkGateDist::max_value   2000000000                       # Distribution of time spent in the clock gated state
system.cpu.pwrStateClkGateDist::total            7073                       # Distribution of time spent in the clock gated state
system.cpu.pwrStateResidencyTicks::ON    495980153000                       # Cumulative time (in ticks) in various power states
system.cpu.pwrStateResidencyTicks::CLK_GATED 2197202814500                       # Cumulative time (in ticks) in various power states
system.cpu.numCycles                       5386365935                       # number of cpu cycles simulated
system.cpu.numWorkItemsStarted                      0                       # number of work items this cpu started
system.cpu.numWorkItemsCompleted                    0                       # number of work items this cpu completed
system.cpu.kern.inst.arm                            0                       # number of arm instructions executed
system.cpu.kern.inst.quiesce                     7073                       # number of quiesce instructions executed
system.cpu.kern.callpal::cserve                     1      0.00%      0.00% # number of callpals executed
system.cpu.kern.callpal::wrmces                     1      0.00%      0.00% # number of callpals executed
system.cpu.kern.callpal::wrfen                      1      0.00%      0.00% # number of callpals executed
system.cpu.kern.callpal::wrvptptr                   1      0.00%      0.00% # number of callpals executed
system.cpu.kern.callpal::swpctx                  4487      2.07%      2.07% # number of callpals executed
system.cpu.kern.callpal::tbi                       65      0.03%      2.10% # number of callpals executed
system.cpu.kern.callpal::wrent                      7      0.00%      2.11% # number of callpals executed
system.cpu.kern.callpal::swpipl                198868     91.82%     93.92% # number of callpals executed
system.cpu.kern.callpal::rdps                    6118      2.82%     96.75% # number of callpals executed
system.cpu.kern.callpal::wrkgp                      1      0.00%     96.75% # number of callpals executed
system.cpu.kern.callpal::wrusp                      8      0.00%     96.75% # number of callpals executed
system.cpu.kern.callpal::rdusp                     10      0.00%     96.76% # number of callpals executed
system.cpu.kern.callpal::whami                      2      0.00%     96.76% # number of callpals executed
system.cpu.kern.callpal::rti                     6232      2.88%     99.63% # number of callpals executed
system.cpu.kern.callpal::callsys                  559      0.26%     99.89% # number of callpals executed
system.cpu.kern.callpal::imb                      235      0.11%    100.00% # number of callpals executed
system.cpu.kern.callpal::total                 216596                       # number of callpals executed
system.cpu.kern.inst.hwrei                     239374                       # number of hwrei instructions executed
system.cpu.kern.mode_switch::kernel              6921                       # number of protection mode switches
system.cpu.kern.mode_switch::user                1979                       # number of protection mode switches
system.cpu.kern.mode_switch::idle                2304                       # number of protection mode switches
system.cpu.kern.mode_good::kernel                2040                      
system.cpu.kern.mode_good::user                  1979                      
system.cpu.kern.mode_good::idle                    61                      
system.cpu.kern.mode_switch_good::kernel     0.294755                       # fraction of useful protection mode switches
system.cpu.kern.mode_switch_good::user              1                       # fraction of useful protection mode switches
system.cpu.kern.mode_switch_good::idle       0.026476                       # fraction of useful protection mode switches
system.cpu.kern.mode_switch_good::total      0.364156                       # fraction of useful protection mode switches
system.cpu.kern.mode_ticks::kernel       339707513500     12.61%     12.61% # number of ticks spent at the given mode
system.cpu.kern.mode_ticks::user          12352319000      0.46%     13.07% # number of ticks spent at the given mode
system.cpu.kern.mode_ticks::idle         2341119649000     86.93%    100.00% # number of ticks spent at the given mode
system.cpu.kern.swap_context                     4488                       # number of times the context was actually changed
system.cpu.kern.ipl_count::0                    83073     39.97%     39.97% # number of times we switched to this ipl
system.cpu.kern.ipl_count::21                     117      0.06%     40.02% # number of times we switched to this ipl
system.cpu.kern.ipl_count::22                    2631      1.27%     41.29% # number of times we switched to this ipl
system.cpu.kern.ipl_count::31                  122028     58.71%    100.00% # number of times we switched to this ipl
system.cpu.kern.ipl_count::total               207849                       # number of times we switched to this ipl
system.cpu.kern.ipl_good::0                     81536     49.17%     49.17% # number of times we switched to this ipl from a different ipl
system.cpu.kern.ipl_good::21                      117      0.07%     49.24% # number of times we switched to this ipl from a different ipl
system.cpu.kern.ipl_good::22                     2631      1.59%     50.83% # number of times we switched to this ipl from a different ipl
system.cpu.kern.ipl_good::31                    81536     49.17%    100.00% # number of times we switched to this ipl from a different ipl
system.cpu.kern.ipl_good::total                165820                       # number of times we switched to this ipl from a different ipl
system.cpu.kern.ipl_ticks::0             2494512884500     92.62%     92.62% # number of cycles we spent at this ipl
system.cpu.kern.ipl_ticks::21               201128000      0.01%     92.63% # number of cycles we spent at this ipl
system.cpu.kern.ipl_ticks::22              1565531500      0.06%     92.69% # number of cycles we spent at this ipl
system.cpu.kern.ipl_ticks::31            196899939500      7.31%    100.00% # number of cycles we spent at this ipl
system.cpu.kern.ipl_ticks::total         2693179483500                       # number of cycles we spent at this ipl
system.cpu.kern.ipl_used::0                  0.981498                       # fraction of swpipl calls that actually changed the ipl
system.cpu.kern.ipl_used::21                        1                       # fraction of swpipl calls that actually changed the ipl
system.cpu.kern.ipl_used::22                        1                       # fraction of swpipl calls that actually changed the ipl
system.cpu.kern.ipl_used::31                 0.668175                       # fraction of swpipl calls that actually changed the ipl
system.cpu.kern.ipl_used::total              0.797791                       # fraction of swpipl calls that actually changed the ipl
system.cpu.committedInsts                    97481406                       # Number of instructions committed
system.cpu.committedOps                      97481406                       # Number of ops (including micro ops) committed
system.cpu.num_int_alu_accesses              94474227                       # Number of integer alu accesses
system.cpu.num_fp_alu_accesses                 424911                       # Number of float alu accesses
system.cpu.num_vec_alu_accesses                     0                       # Number of vector alu accesses
system.cpu.num_func_calls                     2920894                       # number of times a function call or return occured
system.cpu.num_conditional_control_insts     12577222                       # number of instructions that are conditional controls
system.cpu.num_int_insts                     94474227                       # number of integer instructions
system.cpu.num_fp_insts                        424911                       # number of float instructions
system.cpu.num_vec_insts                            0                       # number of vector instructions
system.cpu.num_int_register_reads           129814717                       # number of times the integer registers were read
system.cpu.num_int_register_writes           71794246                       # number of times the integer registers were written
system.cpu.num_fp_register_reads               177092                       # number of times the floating registers were read
system.cpu.num_fp_register_writes              180065                       # number of times the floating registers were written
system.cpu.num_vec_register_reads                   0                       # number of times the vector registers were read
system.cpu.num_vec_register_writes                  0                       # number of times the vector registers were written
system.cpu.num_mem_refs                      25972113                       # number of memory refs
system.cpu.num_load_insts                    17058754                       # Number of load instructions
system.cpu.num_store_insts                    8913359                       # Number of store instructions
system.cpu.num_idle_cycles               4394405628.998368                       # Number of idle cycles
system.cpu.num_busy_cycles               991960306.001632                       # Number of busy cycles
system.cpu.not_idle_fraction                 0.184161                       # Percentage of non-idle cycles
system.cpu.idle_fraction                     0.815839                       # Percentage of idle cycles
system.cpu.Branches                          16114731                       # Number of branches fetched
system.cpu.op_class::No_OpClass               1595197      1.64%      1.64% # Class of executed instruction
system.cpu.op_class::IntAlu                  67996558     69.74%     71.38% # Class of executed instruction
system.cpu.op_class::IntMult                   187194      0.19%     71.57% # Class of executed instruction
system.cpu.op_class::IntDiv                         0      0.00%     71.57% # Class of executed instruction
system.cpu.op_class::FloatAdd                  117380      0.12%     71.69% # Class of executed instruction
system.cpu.op_class::FloatCmp                       0      0.00%     71.69% # Class of executed instruction
system.cpu.op_class::FloatCvt                       0      0.00%     71.69% # Class of executed instruction
system.cpu.op_class::FloatMult                      0      0.00%     71.69% # Class of executed instruction
system.cpu.op_class::FloatMultAcc                   0      0.00%     71.69% # Class of executed instruction
system.cpu.op_class::FloatDiv                    4179      0.00%     71.70% # Class of executed instruction
system.cpu.op_class::FloatMisc                      0      0.00%     71.70% # Class of executed instruction
system.cpu.op_class::FloatSqrt                      0      0.00%     71.70% # Class of executed instruction
system.cpu.op_class::SimdAdd                        0      0.00%     71.70% # Class of executed instruction
system.cpu.op_class::SimdAddAcc                     0      0.00%     71.70% # Class of executed instruction
system.cpu.op_class::SimdAlu                        0      0.00%     71.70% # Class of executed instruction
system.cpu.op_class::SimdCmp                        0      0.00%     71.70% # Class of executed instruction
system.cpu.op_class::SimdCvt                        0      0.00%     71.70% # Class of executed instruction
system.cpu.op_class::SimdMisc                       0      0.00%     71.70% # Class of executed instruction
system.cpu.op_class::SimdMult                       0      0.00%     71.70% # Class of executed instruction
system.cpu.op_class::SimdMultAcc                    0      0.00%     71.70% # Class of executed instruction
system.cpu.op_class::SimdShift                      0      0.00%     71.70% # Class of executed instruction
system.cpu.op_class::SimdShiftAcc                   0      0.00%     71.70% # Class of executed instruction
system.cpu.op_class::SimdSqrt                       0      0.00%     71.70% # Class of executed instruction
system.cpu.op_class::SimdFloatAdd                   0      0.00%     71.70% # Class of executed instruction
system.cpu.op_class::SimdFloatAlu                   0      0.00%     71.70% # Class of executed instruction
system.cpu.op_class::SimdFloatCmp                   0      0.00%     71.70% # Class of executed instruction
system.cpu.op_class::SimdFloatCvt                   0      0.00%     71.70% # Class of executed instruction
system.cpu.op_class::SimdFloatDiv                   0      0.00%     71.70% # Class of executed instruction
system.cpu.op_class::SimdFloatMisc                  0      0.00%     71.70% # Class of executed instruction
system.cpu.op_class::SimdFloatMult                  0      0.00%     71.70% # Class of executed instruction
system.cpu.op_class::SimdFloatMultAcc               0      0.00%     71.70% # Class of executed instruction
system.cpu.op_class::SimdFloatSqrt                  0      0.00%     71.70% # Class of executed instruction
system.cpu.op_class::MemRead                 17361165     17.81%     89.50% # Class of executed instruction
system.cpu.op_class::MemWrite                 8839730      9.07%     98.57% # Class of executed instruction
system.cpu.op_class::FloatMemRead              155256      0.16%     98.73% # Class of executed instruction
system.cpu.op_class::FloatMemWrite             148096      0.15%     98.88% # Class of executed instruction
system.cpu.op_class::IprAccess                1090649      1.12%    100.00% # Class of executed instruction
system.cpu.op_class::InstPrefetch                   0      0.00%    100.00% # Class of executed instruction
system.cpu.op_class::total                   97495404                       # Class of executed instruction
system.cpu.dcache.tags.pwrStateResidencyTicks::UNDEFINED 2693182967500                       # Cumulative time (in ticks) in various power states
system.cpu.dcache.tags.replacements           3355746                       # number of replacements
system.cpu.dcache.tags.tagsinuse          2047.857321                       # Cycle average of tags in use
system.cpu.dcache.tags.total_refs            22406305                       # Total number of references to valid blocks.
system.cpu.dcache.tags.sampled_refs           3355746                       # Sample count of references to valid blocks.
system.cpu.dcache.tags.avg_refs              6.676997                       # Average number of references to valid blocks.
system.cpu.dcache.tags.warmup_cycle         268865500                       # Cycle when the warmup percentage was hit.
system.cpu.dcache.tags.occ_blocks::cpu.data  2047.857321                       # Average occupied blocks per requestor
system.cpu.dcache.tags.occ_percent::cpu.data     0.999930                       # Average percentage of cache occupancy
system.cpu.dcache.tags.occ_percent::total     0.999930                       # Average percentage of cache occupancy
system.cpu.dcache.tags.occ_task_id_blocks::1024         2048                       # Occupied blocks per task id
system.cpu.dcache.tags.age_task_id_blocks_1024::0           36                       # Occupied blocks per task id
system.cpu.dcache.tags.age_task_id_blocks_1024::1          767                       # Occupied blocks per task id
system.cpu.dcache.tags.age_task_id_blocks_1024::2         1195                       # Occupied blocks per task id
system.cpu.dcache.tags.age_task_id_blocks_1024::3           46                       # Occupied blocks per task id
system.cpu.dcache.tags.age_task_id_blocks_1024::4            4                       # Occupied blocks per task id
system.cpu.dcache.tags.occ_task_id_percent::1024            1                       # Percentage of cache occupancy per task id
system.cpu.dcache.tags.tag_accesses         210834182                       # Number of tag accesses
system.cpu.dcache.tags.data_accesses        210834182                       # Number of data accesses
system.cpu.dcache.pwrStateResidencyTicks::UNDEFINED 2693182967500                       # Cumulative time (in ticks) in various power states
system.cpu.dcache.ReadReq_hits::cpu.data     14091098                       # number of ReadReq hits
system.cpu.dcache.ReadReq_hits::total        14091098                       # number of ReadReq hits
system.cpu.dcache.WriteReq_hits::cpu.data      7868081                       # number of WriteReq hits
system.cpu.dcache.WriteReq_hits::total        7868081                       # number of WriteReq hits
system.cpu.dcache.LoadLockedReq_hits::cpu.data       301080                       # number of LoadLockedReq hits
system.cpu.dcache.LoadLockedReq_hits::total       301080                       # number of LoadLockedReq hits
system.cpu.dcache.StoreCondReq_hits::cpu.data       315997                       # number of StoreCondReq hits
system.cpu.dcache.StoreCondReq_hits::total       315997                       # number of StoreCondReq hits
system.cpu.dcache.demand_hits::cpu.data      21959179                       # number of demand (read+write) hits
system.cpu.dcache.demand_hits::total         21959179                       # number of demand (read+write) hits
system.cpu.dcache.overall_hits::cpu.data     21959179                       # number of overall hits
system.cpu.dcache.overall_hits::total        21959179                       # number of overall hits
system.cpu.dcache.ReadReq_misses::cpu.data      2631085                       # number of ReadReq misses
system.cpu.dcache.ReadReq_misses::total       2631085                       # number of ReadReq misses
system.cpu.dcache.WriteReq_misses::cpu.data       711163                       # number of WriteReq misses
system.cpu.dcache.WriteReq_misses::total       711163                       # number of WriteReq misses
system.cpu.dcache.LoadLockedReq_misses::cpu.data        15994                       # number of LoadLockedReq misses
system.cpu.dcache.LoadLockedReq_misses::total        15994                       # number of LoadLockedReq misses
system.cpu.dcache.demand_misses::cpu.data      3342248                       # number of demand (read+write) misses
system.cpu.dcache.demand_misses::total        3342248                       # number of demand (read+write) misses
system.cpu.dcache.overall_misses::cpu.data      3342248                       # number of overall misses
system.cpu.dcache.overall_misses::total       3342248                       # number of overall misses
system.cpu.dcache.ReadReq_miss_latency::cpu.data 213029219000                       # number of ReadReq miss cycles
system.cpu.dcache.ReadReq_miss_latency::total 213029219000                       # number of ReadReq miss cycles
system.cpu.dcache.WriteReq_miss_latency::cpu.data  56637235500                       # number of WriteReq miss cycles
system.cpu.dcache.WriteReq_miss_latency::total  56637235500                       # number of WriteReq miss cycles
system.cpu.dcache.LoadLockedReq_miss_latency::cpu.data   1170633000                       # number of LoadLockedReq miss cycles
system.cpu.dcache.LoadLockedReq_miss_latency::total   1170633000                       # number of LoadLockedReq miss cycles
system.cpu.dcache.demand_miss_latency::cpu.data 269666454500                       # number of demand (read+write) miss cycles
system.cpu.dcache.demand_miss_latency::total 269666454500                       # number of demand (read+write) miss cycles
system.cpu.dcache.overall_miss_latency::cpu.data 269666454500                       # number of overall miss cycles
system.cpu.dcache.overall_miss_latency::total 269666454500                       # number of overall miss cycles
system.cpu.dcache.ReadReq_accesses::cpu.data     16722183                       # number of ReadReq accesses(hits+misses)
system.cpu.dcache.ReadReq_accesses::total     16722183                       # number of ReadReq accesses(hits+misses)
system.cpu.dcache.WriteReq_accesses::cpu.data      8579244                       # number of WriteReq accesses(hits+misses)
system.cpu.dcache.WriteReq_accesses::total      8579244                       # number of WriteReq accesses(hits+misses)
system.cpu.dcache.LoadLockedReq_accesses::cpu.data       317074                       # number of LoadLockedReq accesses(hits+misses)
system.cpu.dcache.LoadLockedReq_accesses::total       317074                       # number of LoadLockedReq accesses(hits+misses)
system.cpu.dcache.StoreCondReq_accesses::cpu.data       315997                       # number of StoreCondReq accesses(hits+misses)
system.cpu.dcache.StoreCondReq_accesses::total       315997                       # number of StoreCondReq accesses(hits+misses)
system.cpu.dcache.demand_accesses::cpu.data     25301427                       # number of demand (read+write) accesses
system.cpu.dcache.demand_accesses::total     25301427                       # number of demand (read+write) accesses
system.cpu.dcache.overall_accesses::cpu.data     25301427                       # number of overall (read+write) accesses
system.cpu.dcache.overall_accesses::total     25301427                       # number of overall (read+write) accesses
system.cpu.dcache.ReadReq_miss_rate::cpu.data     0.157341                       # miss rate for ReadReq accesses
system.cpu.dcache.ReadReq_miss_rate::total     0.157341                       # miss rate for ReadReq accesses
system.cpu.dcache.WriteReq_miss_rate::cpu.data     0.082893                       # miss rate for WriteReq accesses
system.cpu.dcache.WriteReq_miss_rate::total     0.082893                       # miss rate for WriteReq accesses
system.cpu.dcache.LoadLockedReq_miss_rate::cpu.data     0.050442                       # miss rate for LoadLockedReq accesses
system.cpu.dcache.LoadLockedReq_miss_rate::total     0.050442                       # miss rate for LoadLockedReq accesses
system.cpu.dcache.demand_miss_rate::cpu.data     0.132097                       # miss rate for demand accesses
system.cpu.dcache.demand_miss_rate::total     0.132097                       # miss rate for demand accesses
system.cpu.dcache.overall_miss_rate::cpu.data     0.132097                       # miss rate for overall accesses
system.cpu.dcache.overall_miss_rate::total     0.132097                       # miss rate for overall accesses
system.cpu.dcache.ReadReq_avg_miss_latency::cpu.data 80966.300595                       # average ReadReq miss latency
system.cpu.dcache.ReadReq_avg_miss_latency::total 80966.300595                       # average ReadReq miss latency
system.cpu.dcache.WriteReq_avg_miss_latency::cpu.data 79640.301169                       # average WriteReq miss latency
system.cpu.dcache.WriteReq_avg_miss_latency::total 79640.301169                       # average WriteReq miss latency
system.cpu.dcache.LoadLockedReq_avg_miss_latency::cpu.data 73192.009504                       # average LoadLockedReq miss latency
system.cpu.dcache.LoadLockedReq_avg_miss_latency::total 73192.009504                       # average LoadLockedReq miss latency
system.cpu.dcache.demand_avg_miss_latency::cpu.data 80684.154647                       # average overall miss latency
system.cpu.dcache.demand_avg_miss_latency::total 80684.154647                       # average overall miss latency
system.cpu.dcache.overall_avg_miss_latency::cpu.data 80684.154647                       # average overall miss latency
system.cpu.dcache.overall_avg_miss_latency::total 80684.154647                       # average overall miss latency
system.cpu.dcache.blocked_cycles::no_mshrs            0                       # number of cycles access was blocked
system.cpu.dcache.blocked_cycles::no_targets            0                       # number of cycles access was blocked
system.cpu.dcache.blocked::no_mshrs                 0                       # number of cycles access was blocked
system.cpu.dcache.blocked::no_targets               0                       # number of cycles access was blocked
system.cpu.dcache.avg_blocked_cycles::no_mshrs          nan                       # average number of cycles each access was blocked
system.cpu.dcache.avg_blocked_cycles::no_targets          nan                       # average number of cycles each access was blocked
system.cpu.dcache.writebacks::writebacks       952799                       # number of writebacks
system.cpu.dcache.writebacks::total            952799                       # number of writebacks
system.cpu.dcache.ReadReq_mshr_misses::cpu.data      2631085                       # number of ReadReq MSHR misses
system.cpu.dcache.ReadReq_mshr_misses::total      2631085                       # number of ReadReq MSHR misses
system.cpu.dcache.WriteReq_mshr_misses::cpu.data       711163                       # number of WriteReq MSHR misses
system.cpu.dcache.WriteReq_mshr_misses::total       711163                       # number of WriteReq MSHR misses
system.cpu.dcache.LoadLockedReq_mshr_misses::cpu.data        15994                       # number of LoadLockedReq MSHR misses
system.cpu.dcache.LoadLockedReq_mshr_misses::total        15994                       # number of LoadLockedReq MSHR misses
system.cpu.dcache.demand_mshr_misses::cpu.data      3342248                       # number of demand (read+write) MSHR misses
system.cpu.dcache.demand_mshr_misses::total      3342248                       # number of demand (read+write) MSHR misses
system.cpu.dcache.overall_mshr_misses::cpu.data      3342248                       # number of overall MSHR misses
system.cpu.dcache.overall_mshr_misses::total      3342248                       # number of overall MSHR misses
system.cpu.dcache.ReadReq_mshr_uncacheable::cpu.data         6973                       # number of ReadReq MSHR uncacheable
system.cpu.dcache.ReadReq_mshr_uncacheable::total         6973                       # number of ReadReq MSHR uncacheable
system.cpu.dcache.WriteReq_mshr_uncacheable::cpu.data        10409                       # number of WriteReq MSHR uncacheable
system.cpu.dcache.WriteReq_mshr_uncacheable::total        10409                       # number of WriteReq MSHR uncacheable
system.cpu.dcache.overall_mshr_uncacheable_misses::cpu.data        17382                       # number of overall MSHR uncacheable misses
system.cpu.dcache.overall_mshr_uncacheable_misses::total        17382                       # number of overall MSHR uncacheable misses
system.cpu.dcache.ReadReq_mshr_miss_latency::cpu.data 210398134000                       # number of ReadReq MSHR miss cycles
system.cpu.dcache.ReadReq_mshr_miss_latency::total 210398134000                       # number of ReadReq MSHR miss cycles
system.cpu.dcache.WriteReq_mshr_miss_latency::cpu.data  55926072500                       # number of WriteReq MSHR miss cycles
system.cpu.dcache.WriteReq_mshr_miss_latency::total  55926072500                       # number of WriteReq MSHR miss cycles
system.cpu.dcache.LoadLockedReq_mshr_miss_latency::cpu.data   1154639000                       # number of LoadLockedReq MSHR miss cycles
system.cpu.dcache.LoadLockedReq_mshr_miss_latency::total   1154639000                       # number of LoadLockedReq MSHR miss cycles
system.cpu.dcache.demand_mshr_miss_latency::cpu.data 266324206500                       # number of demand (read+write) MSHR miss cycles
system.cpu.dcache.demand_mshr_miss_latency::total 266324206500                       # number of demand (read+write) MSHR miss cycles
system.cpu.dcache.overall_mshr_miss_latency::cpu.data 266324206500                       # number of overall MSHR miss cycles
system.cpu.dcache.overall_mshr_miss_latency::total 266324206500                       # number of overall MSHR miss cycles
system.cpu.dcache.ReadReq_mshr_uncacheable_latency::cpu.data   1545993500                       # number of ReadReq MSHR uncacheable cycles
system.cpu.dcache.ReadReq_mshr_uncacheable_latency::total   1545993500                       # number of ReadReq MSHR uncacheable cycles
system.cpu.dcache.overall_mshr_uncacheable_latency::cpu.data   1545993500                       # number of overall MSHR uncacheable cycles
system.cpu.dcache.overall_mshr_uncacheable_latency::total   1545993500                       # number of overall MSHR uncacheable cycles
system.cpu.dcache.ReadReq_mshr_miss_rate::cpu.data     0.157341                       # mshr miss rate for ReadReq accesses
system.cpu.dcache.ReadReq_mshr_miss_rate::total     0.157341                       # mshr miss rate for ReadReq accesses
system.cpu.dcache.WriteReq_mshr_miss_rate::cpu.data     0.082893                       # mshr miss rate for WriteReq accesses
system.cpu.dcache.WriteReq_mshr_miss_rate::total     0.082893                       # mshr miss rate for WriteReq accesses
system.cpu.dcache.LoadLockedReq_mshr_miss_rate::cpu.data     0.050442                       # mshr miss rate for LoadLockedReq accesses
system.cpu.dcache.LoadLockedReq_mshr_miss_rate::total     0.050442                       # mshr miss rate for LoadLockedReq accesses
system.cpu.dcache.demand_mshr_miss_rate::cpu.data     0.132097                       # mshr miss rate for demand accesses
system.cpu.dcache.demand_mshr_miss_rate::total     0.132097                       # mshr miss rate for demand accesses
system.cpu.dcache.overall_mshr_miss_rate::cpu.data     0.132097                       # mshr miss rate for overall accesses
system.cpu.dcache.overall_mshr_miss_rate::total     0.132097                       # mshr miss rate for overall accesses
system.cpu.dcache.ReadReq_avg_mshr_miss_latency::cpu.data 79966.300595                       # average ReadReq mshr miss latency
system.cpu.dcache.ReadReq_avg_mshr_miss_latency::total 79966.300595                       # average ReadReq mshr miss latency
system.cpu.dcache.WriteReq_avg_mshr_miss_latency::cpu.data 78640.301169                       # average WriteReq mshr miss latency
system.cpu.dcache.WriteReq_avg_mshr_miss_latency::total 78640.301169                       # average WriteReq mshr miss latency
system.cpu.dcache.LoadLockedReq_avg_mshr_miss_latency::cpu.data 72192.009504                       # average LoadLockedReq mshr miss latency
system.cpu.dcache.LoadLockedReq_avg_mshr_miss_latency::total 72192.009504                       # average LoadLockedReq mshr miss latency
system.cpu.dcache.demand_avg_mshr_miss_latency::cpu.data 79684.154647                       # average overall mshr miss latency
system.cpu.dcache.demand_avg_mshr_miss_latency::total 79684.154647                       # average overall mshr miss latency
system.cpu.dcache.overall_avg_mshr_miss_latency::cpu.data 79684.154647                       # average overall mshr miss latency
system.cpu.dcache.overall_avg_mshr_miss_latency::total 79684.154647                       # average overall mshr miss latency
system.cpu.dcache.ReadReq_avg_mshr_uncacheable_latency::cpu.data 221711.386778                       # average ReadReq mshr uncacheable latency
system.cpu.dcache.ReadReq_avg_mshr_uncacheable_latency::total 221711.386778                       # average ReadReq mshr uncacheable latency
system.cpu.dcache.overall_avg_mshr_uncacheable_latency::cpu.data 88942.210333                       # average overall mshr uncacheable latency
system.cpu.dcache.overall_avg_mshr_uncacheable_latency::total 88942.210333                       # average overall mshr uncacheable latency
system.cpu.icache.tags.pwrStateResidencyTicks::UNDEFINED 2693182967500                       # Cumulative time (in ticks) in various power states
system.cpu.icache.tags.replacements           1853449                       # number of replacements
system.cpu.icache.tags.tagsinuse          1006.581862                       # Cycle average of tags in use
system.cpu.icache.tags.total_refs            95433493                       # Total number of references to valid blocks.
system.cpu.icache.tags.sampled_refs           1853449                       # Sample count of references to valid blocks.
system.cpu.icache.tags.avg_refs             51.489678                       # Average number of references to valid blocks.
system.cpu.icache.tags.warmup_cycle      156936639500                       # Cycle when the warmup percentage was hit.
system.cpu.icache.tags.occ_blocks::cpu.inst  1006.581862                       # Average occupied blocks per requestor
system.cpu.icache.tags.occ_percent::cpu.inst     0.982990                       # Average percentage of cache occupancy
system.cpu.icache.tags.occ_percent::total     0.982990                       # Average percentage of cache occupancy
system.cpu.icache.tags.occ_task_id_blocks::1024         1024                       # Occupied blocks per task id
system.cpu.icache.tags.age_task_id_blocks_1024::0           59                       # Occupied blocks per task id
system.cpu.icache.tags.age_task_id_blocks_1024::1           81                       # Occupied blocks per task id
system.cpu.icache.tags.age_task_id_blocks_1024::2          325                       # Occupied blocks per task id
system.cpu.icache.tags.age_task_id_blocks_1024::3          559                       # Occupied blocks per task id
system.cpu.icache.tags.occ_task_id_percent::1024            1                       # Percentage of cache occupancy per task id
system.cpu.icache.tags.tag_accesses         196845500                       # Number of tag accesses
system.cpu.icache.tags.data_accesses        196845500                       # Number of data accesses
system.cpu.icache.pwrStateResidencyTicks::UNDEFINED 2693182967500                       # Cumulative time (in ticks) in various power states
system.cpu.icache.ReadReq_hits::cpu.inst     95640715                       # number of ReadReq hits
system.cpu.icache.ReadReq_hits::total        95640715                       # number of ReadReq hits
system.cpu.icache.demand_hits::cpu.inst      95640715                       # number of demand (read+write) hits
system.cpu.icache.demand_hits::total         95640715                       # number of demand (read+write) hits
system.cpu.icache.overall_hits::cpu.inst     95640715                       # number of overall hits
system.cpu.icache.overall_hits::total        95640715                       # number of overall hits
system.cpu.icache.ReadReq_misses::cpu.inst      1854690                       # number of ReadReq misses
system.cpu.icache.ReadReq_misses::total       1854690                       # number of ReadReq misses
system.cpu.icache.demand_misses::cpu.inst      1854690                       # number of demand (read+write) misses
system.cpu.icache.demand_misses::total        1854690                       # number of demand (read+write) misses
system.cpu.icache.overall_misses::cpu.inst      1854690                       # number of overall misses
system.cpu.icache.overall_misses::total       1854690                       # number of overall misses
system.cpu.icache.ReadReq_miss_latency::cpu.inst 102978126500                       # number of ReadReq miss cycles
system.cpu.icache.ReadReq_miss_latency::total 102978126500                       # number of ReadReq miss cycles
system.cpu.icache.demand_miss_latency::cpu.inst 102978126500                       # number of demand (read+write) miss cycles
system.cpu.icache.demand_miss_latency::total 102978126500                       # number of demand (read+write) miss cycles
system.cpu.icache.overall_miss_latency::cpu.inst 102978126500                       # number of overall miss cycles
system.cpu.icache.overall_miss_latency::total 102978126500                       # number of overall miss cycles
system.cpu.icache.ReadReq_accesses::cpu.inst     97495405                       # number of ReadReq accesses(hits+misses)
system.cpu.icache.ReadReq_accesses::total     97495405                       # number of ReadReq accesses(hits+misses)
system.cpu.icache.demand_accesses::cpu.inst     97495405                       # number of demand (read+write) accesses
system.cpu.icache.demand_accesses::total     97495405                       # number of demand (read+write) accesses
system.cpu.icache.overall_accesses::cpu.inst     97495405                       # number of overall (read+write) accesses
system.cpu.icache.overall_accesses::total     97495405                       # number of overall (read+write) accesses
system.cpu.icache.ReadReq_miss_rate::cpu.inst     0.019023                       # miss rate for ReadReq accesses
system.cpu.icache.ReadReq_miss_rate::total     0.019023                       # miss rate for ReadReq accesses
system.cpu.icache.demand_miss_rate::cpu.inst     0.019023                       # miss rate for demand accesses
system.cpu.icache.demand_miss_rate::total     0.019023                       # miss rate for demand accesses
system.cpu.icache.overall_miss_rate::cpu.inst     0.019023                       # miss rate for overall accesses
system.cpu.icache.overall_miss_rate::total     0.019023                       # miss rate for overall accesses
system.cpu.icache.ReadReq_avg_miss_latency::cpu.inst 55523.093617                       # average ReadReq miss latency
system.cpu.icache.ReadReq_avg_miss_latency::total 55523.093617                       # average ReadReq miss latency
system.cpu.icache.demand_avg_miss_latency::cpu.inst 55523.093617                       # average overall miss latency
system.cpu.icache.demand_avg_miss_latency::total 55523.093617                       # average overall miss latency
system.cpu.icache.overall_avg_miss_latency::cpu.inst 55523.093617                       # average overall miss latency
system.cpu.icache.overall_avg_miss_latency::total 55523.093617                       # average overall miss latency
system.cpu.icache.blocked_cycles::no_mshrs            0                       # number of cycles access was blocked
system.cpu.icache.blocked_cycles::no_targets            0                       # number of cycles access was blocked
system.cpu.icache.blocked::no_mshrs                 0                       # number of cycles access was blocked
system.cpu.icache.blocked::no_targets               0                       # number of cycles access was blocked
system.cpu.icache.avg_blocked_cycles::no_mshrs          nan                       # average number of cycles each access was blocked
[...]
system.l2.overall_avg_mshr_uncacheable_latency::total 119920.612813                       # average overall mshr uncacheable latency
system.membus.snoop_filter.tot_requests        198537                       # Total number of requests made to the snoop filter.
system.membus.snoop_filter.hit_single_requests        99382                       # Number of requests hitting in the snoop filter with a single holder of the requested data.
system.membus.snoop_filter.hit_multi_requests           28                       # Number of requests hitting in the snoop filter with multiple (>1) holders of the requested data.
system.membus.snoop_filter.tot_snoops               0                       # Total number of snoops made to the snoop filter.
system.membus.snoop_filter.hit_single_snoops            0                       # Number of snoops hitting in the snoop filter with a single holder of the requested data.
system.membus.snoop_filter.hit_multi_snoops            0                       # Number of snoops hitting in the snoop filter with multiple (>1) holders of the requested data.
system.membus.pwrStateResidencyTicks::UNDEFINED   9464654000                       # Cumulative time (in ticks) in various power states
system.membus.trans_dist::ReadReq                 610                       # Transaction distribution
system.membus.trans_dist::ReadResp              50991                       # Transaction distribution
system.membus.trans_dist::WriteReq                467                       # Transaction distribution
system.membus.trans_dist::WriteResp               467                       # Transaction distribution
system.membus.trans_dist::WritebackDirty        51968                       # Transaction distribution
system.membus.trans_dist::CleanEvict            47226                       # Transaction distribution
system.membus.trans_dist::UpgradeReq                3                       # Transaction distribution
system.membus.trans_dist::ReadExReq             26303                       # Transaction distribution
system.membus.trans_dist::ReadExResp            26303                       # Transaction distribution
system.membus.trans_dist::ReadSharedReq         50381                       # Transaction distribution
system.membus.trans_dist::InvalidateReq         22656                       # Transaction distribution
system.membus.trans_dist::InvalidateResp            1                       # Transaction distribution
system.membus.pkt_count_system.iocache.mem_side::system.mem_ctrls.port        45366                       # Packet count per connected master and slave (bytes)
system.membus.pkt_count_system.iocache.mem_side::total        45366                       # Packet count per connected master and slave (bytes)
system.membus.pkt_count_system.l2.mem_side::system.bridge.slave         2154                       # Packet count per connected master and slave (bytes)
system.membus.pkt_count_system.l2.mem_side::system.mem_ctrls.port       229828                       # Packet count per connected master and slave (bytes)
system.membus.pkt_count_system.l2.mem_side::total       231982                       # Packet count per connected master and slave (bytes)
system.membus.pkt_count::total                 277348                       # Packet count per connected master and slave (bytes)
system.membus.pkt_size_system.iocache.mem_side::system.mem_ctrls.port       724992                       # Cumulative packet size per connected master and slave (bytes)
system.membus.pkt_size_system.iocache.mem_side::total       724992                       # Cumulative packet size per connected master and slave (bytes)
system.membus.pkt_size_system.l2.mem_side::system.bridge.slave         1759                       # Cumulative packet size per connected master and slave (bytes)
system.membus.pkt_size_system.l2.mem_side::system.mem_ctrls.port      3391008                       # Cumulative packet size per connected master and slave (bytes)
system.membus.pkt_size_system.l2.mem_side::total      3392767                       # Cumulative packet size per connected master and slave (bytes)
system.membus.pkt_size::total                 4117759                       # Cumulative packet size per connected master and slave (bytes)
system.membus.snoops                               28                       # Total snoops (count)
system.membus.snoopTraffic                        864                       # Total snoop traffic (bytes)
system.membus.snoop_fanout::samples            100420                       # Request fanout histogram
system.membus.snoop_fanout::mean             0.000289                       # Request fanout histogram
system.membus.snoop_fanout::stdev            0.016991                       # Request fanout histogram
system.membus.snoop_fanout::underflows              0      0.00%      0.00% # Request fanout histogram
system.membus.snoop_fanout::0                  100391     99.97%     99.97% # Request fanout histogram
system.membus.snoop_fanout::1                      29      0.03%    100.00% # Request fanout histogram
system.membus.snoop_fanout::2                       0      0.00%    100.00% # Request fanout histogram
system.membus.snoop_fanout::overflows               0      0.00%    100.00% # Request fanout histogram
system.membus.snoop_fanout::min_value               0                       # Request fanout histogram
system.membus.snoop_fanout::max_value               1                       # Request fanout histogram
system.membus.snoop_fanout::total              100420                       # Request fanout histogram
system.membus.reqLayer0.occupancy             1772000                       # Layer occupancy (ticks)
system.membus.reqLayer0.utilization               0.0                       # Layer utilization (%)
system.membus.reqLayer1.occupancy           302571821                       # Layer occupancy (ticks)
system.membus.reqLayer1.utilization               3.2                       # Layer utilization (%)
system.membus.respLayer1.occupancy              95515                       # Layer occupancy (ticks)
system.membus.respLayer1.utilization              0.0                       # Layer utilization (%)
system.membus.respLayer2.occupancy          256162000                       # Layer occupancy (ticks)
system.membus.respLayer2.utilization              2.7                       # Layer utilization (%)
system.membus.badaddr_responder.pwrStateResidencyTicks::UNDEFINED   9464654000                       # Cumulative time (in ticks) in various power states
system.tol2bus.snoop_filter.tot_requests       187043                       # Total number of requests made to the snoop filter.
system.tol2bus.snoop_filter.hit_single_requests        93524                       # Number of requests hitting in the snoop filter with a single holder of the requested data.
system.tol2bus.snoop_filter.hit_multi_requests          325                       # Number of requests hitting in the snoop filter with multiple (>1) holders of the requested data.
system.tol2bus.snoop_filter.tot_snoops          74131                       # Total number of snoops made to the snoop filter.
system.tol2bus.snoop_filter.hit_single_snoops        73850                       # Number of snoops hitting in the snoop filter with a single holder of the requested data.
system.tol2bus.snoop_filter.hit_multi_snoops          281                       # Number of snoops hitting in the snoop filter with multiple (>1) holders of the requested data.
system.tol2bus.pwrStateResidencyTicks::UNDEFINED   9464654000                       # Cumulative time (in ticks) in various power states
system.tol2bus.trans_dist::ReadReq                610                       # Transaction distribution
system.tol2bus.trans_dist::ReadResp             67469                       # Transaction distribution
system.tol2bus.trans_dist::WriteReq               467                       # Transaction distribution
system.tol2bus.trans_dist::WriteResp              467                       # Transaction distribution
system.tol2bus.trans_dist::WritebackDirty        59693                       # Transaction distribution
system.tol2bus.trans_dist::WritebackClean        47255                       # Transaction distribution
system.tol2bus.trans_dist::CleanEvict          123055                       # Transaction distribution
system.tol2bus.trans_dist::UpgradeReq               4                       # Transaction distribution
system.tol2bus.trans_dist::UpgradeResp              4                       # Transaction distribution
system.tol2bus.trans_dist::ReadExReq            26690                       # Transaction distribution
system.tol2bus.trans_dist::ReadExResp           26690                       # Transaction distribution
system.tol2bus.trans_dist::ReadCleanReq         47260                       # Transaction distribution
system.tol2bus.trans_dist::ReadSharedReq        19599                       # Transaction distribution
system.tol2bus.trans_dist::InvalidateReq            2                       # Transaction distribution
system.tol2bus.pkt_count_system.cpu.icache.mem_side::system.l2.cpu_side       141773                       # Packet count per connected master and slave (bytes)
system.tol2bus.pkt_count_system.cpu.dcache.mem_side::system.l2.cpu_side       140975                       # Packet count per connected master and slave (bytes)
system.tol2bus.pkt_count::total                282748                       # Packet count per connected master and slave (bytes)
system.tol2bus.pkt_size_system.cpu.icache.mem_side::system.l2.cpu_side      3024416                       # Cumulative packet size per connected master and slave (bytes)
system.tol2bus.pkt_size_system.cpu.dcache.mem_side::system.l2.cpu_side      2455199                       # Cumulative packet size per connected master and slave (bytes)
system.tol2bus.pkt_size::total                5479615                       # Cumulative packet size per connected master and slave (bytes)
system.tol2bus.snoops                          136544                       # Total snoops (count)
system.tol2bus.snoopTraffic                    938912                       # Total snoop traffic (bytes)
system.tol2bus.snoop_fanout::samples           231118                       # Request fanout histogram
system.tol2bus.snoop_fanout::mean            0.323380                       # Request fanout histogram
system.tol2bus.snoop_fanout::stdev           0.470360                       # Request fanout histogram
system.tol2bus.snoop_fanout::underflows             0      0.00%      0.00% # Request fanout histogram
system.tol2bus.snoop_fanout::0                 156660     67.78%     67.78% # Request fanout histogram
system.tol2bus.snoop_fanout::1                  74177     32.09%     99.88% # Request fanout histogram
system.tol2bus.snoop_fanout::2                    281      0.12%    100.00% # Request fanout histogram
system.tol2bus.snoop_fanout::overflows              0      0.00%    100.00% # Request fanout histogram
system.tol2bus.snoop_fanout::min_value              0                       # Request fanout histogram
system.tol2bus.snoop_fanout::max_value              2                       # Request fanout histogram
system.tol2bus.snoop_fanout::total             231118                       # Request fanout histogram
system.tol2bus.reqLayer0.occupancy          133111500                       # Layer occupancy (ticks)
system.tol2bus.reqLayer0.utilization              1.4                       # Layer utilization (%)
system.tol2bus.snoopLayer0.occupancy            34485                       # Layer occupancy (ticks)
system.tol2bus.snoopLayer0.utilization            0.0                       # Layer utilization (%)
system.tol2bus.respLayer0.occupancy          47260000                       # Layer occupancy (ticks)
system.tol2bus.respLayer0.utilization             0.5                       # Layer utilization (%)
system.tol2bus.respLayer1.occupancy          47107500                       # Layer occupancy (ticks)
system.tol2bus.respLayer1.utilization             0.5                       # Layer utilization (%)
system.tsunami.backdoor.pwrStateResidencyTicks::UNDEFINED   9464654000                       # Cumulative time (in ticks) in various power states
system.tsunami.cchip.pwrStateResidencyTicks::UNDEFINED   9464654000                       # Cumulative time (in ticks) in various power states
system.tsunami.pchip.pwrStateResidencyTicks::UNDEFINED   9464654000                       # Cumulative time (in ticks) in various power states
system.tsunami.ethernet.pwrStateResidencyTicks::UNDEFINED   9464654000                       # Cumulative time (in ticks) in various power states
system.tsunami.ethernet.descDMAReads                0                       # Number of descriptors the device read w/ DMA
system.tsunami.ethernet.descDMAWrites               0                       # Number of descriptors the device wrote w/ DMA
system.tsunami.ethernet.descDmaReadBytes            0                       # number of descriptor bytes read w/ DMA
system.tsunami.ethernet.descDmaWriteBytes            0                       # number of descriptor bytes write w/ DMA
system.tsunami.ethernet.postedSwi                   0                       # number of software interrupts posted to CPU
system.tsunami.ethernet.coalescedSwi              nan                       # average number of Swi's coalesced into each post
system.tsunami.ethernet.totalSwi                    0                       # total number of Swi written to ISR
system.tsunami.ethernet.postedRxIdle                0                       # number of rxIdle interrupts posted to CPU
system.tsunami.ethernet.coalescedRxIdle           nan                       # average number of RxIdle's coalesced into each post
system.tsunami.ethernet.totalRxIdle                 0                       # total number of RxIdle written to ISR
system.tsunami.ethernet.postedRxOk                  0                       # number of RxOk interrupts posted to CPU
system.tsunami.ethernet.coalescedRxOk             nan                       # average number of RxOk's coalesced into each post
system.tsunami.ethernet.totalRxOk                   0                       # total number of RxOk written to ISR
system.tsunami.ethernet.postedRxDesc                0                       # number of RxDesc interrupts posted to CPU
system.tsunami.ethernet.coalescedRxDesc           nan                       # average number of RxDesc's coalesced into each post
system.tsunami.ethernet.totalRxDesc                 0                       # total number of RxDesc written to ISR
system.tsunami.ethernet.postedTxOk                  0                       # number of TxOk interrupts posted to CPU
system.tsunami.ethernet.coalescedTxOk             nan                       # average number of TxOk's coalesced into each post
system.tsunami.ethernet.totalTxOk                   0                       # total number of TxOk written to ISR
system.tsunami.ethernet.postedTxIdle                0                       # number of TxIdle interrupts posted to CPU
system.tsunami.ethernet.coalescedTxIdle           nan                       # average number of TxIdle's coalesced into each post
system.tsunami.ethernet.totalTxIdle                 0                       # total number of TxIdle written to ISR
system.tsunami.ethernet.postedTxDesc                0                       # number of TxDesc interrupts posted to CPU
system.tsunami.ethernet.coalescedTxDesc           nan                       # average number of TxDesc's coalesced into each post
system.tsunami.ethernet.totalTxDesc                 0                       # total number of TxDesc written to ISR
system.tsunami.ethernet.postedRxOrn                 0                       # number of RxOrn posted to CPU
system.tsunami.ethernet.coalescedRxOrn            nan                       # average number of RxOrn's coalesced into each post
system.tsunami.ethernet.totalRxOrn                  0                       # total number of RxOrn written to ISR
system.tsunami.ethernet.coalescedTotal            nan                       # average number of interrupts coalesced into each post
system.tsunami.ethernet.postedInterrupts            0                       # number of posts to CPU
system.tsunami.ethernet.droppedPackets              0                       # number of packets dropped
system.tsunami.fake_OROM.pwrStateResidencyTicks::UNDEFINED   9464654000                       # Cumulative time (in ticks) in various power states
system.tsunami.fake_ata0.pwrStateResidencyTicks::UNDEFINED   9464654000                       # Cumulative time (in ticks) in various power states
system.tsunami.fake_ata1.pwrStateResidencyTicks::UNDEFINED   9464654000                       # Cumulative time (in ticks) in various power states
system.tsunami.fake_pnp_addr.pwrStateResidencyTicks::UNDEFINED   9464654000                       # Cumulative time (in ticks) in various power states
system.tsunami.fake_pnp_read0.pwrStateResidencyTicks::UNDEFINED   9464654000                       # Cumulative time (in ticks) in various power states
system.tsunami.fake_pnp_read1.pwrStateResidencyTicks::UNDEFINED   9464654000                       # Cumulative time (in ticks) in various power states
system.tsunami.fake_pnp_read2.pwrStateResidencyTicks::UNDEFINED   9464654000                       # Cumulative time (in ticks) in various power states
system.tsunami.fake_pnp_read3.pwrStateResidencyTicks::UNDEFINED   9464654000                       # Cumulative time (in ticks) in various power states
system.tsunami.fake_pnp_read4.pwrStateResidencyTicks::UNDEFINED   9464654000                       # Cumulative time (in ticks) in various power states
system.tsunami.fake_pnp_read5.pwrStateResidencyTicks::UNDEFINED   9464654000                       # Cumulative time (in ticks) in various power states
system.tsunami.fake_pnp_read6.pwrStateResidencyTicks::UNDEFINED   9464654000                       # Cumulative time (in ticks) in various power states
system.tsunami.fake_pnp_read7.pwrStateResidencyTicks::UNDEFINED   9464654000                       # Cumulative time (in ticks) in various power states
system.tsunami.fake_pnp_write.pwrStateResidencyTicks::UNDEFINED   9464654000                       # Cumulative time (in ticks) in various power states
system.tsunami.fake_ppc.pwrStateResidencyTicks::UNDEFINED   9464654000                       # Cumulative time (in ticks) in various power states
system.tsunami.fake_sm_chip.pwrStateResidencyTicks::UNDEFINED   9464654000                       # Cumulative time (in ticks) in various power states
system.tsunami.fake_uart1.pwrStateResidencyTicks::UNDEFINED   9464654000                       # Cumulative time (in ticks) in various power states
system.tsunami.fake_uart2.pwrStateResidencyTicks::UNDEFINED   9464654000                       # Cumulative time (in ticks) in various power states
system.tsunami.fake_uart3.pwrStateResidencyTicks::UNDEFINED   9464654000                       # Cumulative time (in ticks) in various power states
system.tsunami.fake_uart4.pwrStateResidencyTicks::UNDEFINED   9464654000                       # Cumulative time (in ticks) in various power states
system.tsunami.fb.pwrStateResidencyTicks::UNDEFINED   9464654000                       # Cumulative time (in ticks) in various power states
system.tsunami.ide.pwrStateResidencyTicks::UNDEFINED   9464654000                       # Cumulative time (in ticks) in various power states
system.tsunami.io.pwrStateResidencyTicks::UNDEFINED   9464654000                       # Cumulative time (in ticks) in various power states
system.tsunami.uart.pwrStateResidencyTicks::UNDEFINED   9464654000                       # Cumulative time (in ticks) in various power states

---------- End Simulation Statistics   ----------
