
---------- Begin Simulation Statistics ----------
sim_seconds                                  2.537532                       # Number of seconds simulated
sim_ticks                                2537532036500                       # Number of ticks simulated
final_tick                               2537532036500                       # Number of ticks from beginning of simulation (restored from checkpoints and never reset)
sim_freq                                 1000000000000                       # Frequency of simulated ticks
host_inst_rate                                 226947                       # Simulator instruction rate (inst/s)
host_op_rate                                   226947                       # Simulator op (including micro ops) rate (op/s)
host_tick_rate                             5114290006                       # Simulator tick rate (ticks/s)
host_mem_usage                                 755816                       # Number of bytes of host memory used
host_seconds                                   496.17                       # Real time elapsed on the host
sim_insts                                   112602987                       # Number of instructions simulated
sim_ops                                     112602987                       # Number of ops (including micro ops) simulated
system.voltage_domain.voltage                       1                       # Voltage in Volts
system.clk_domain.clock                          1000                       # Clock period in ticks
system.mem_ctrls.pwrStateResidencyTicks::UNDEFINED 2537532036500                       # Cumulative time (in ticks) in various power states
system.mem_ctrls.bytes_read::cpu0.inst         592064                       # Number of bytes read from this memory
system.mem_ctrls.bytes_read::cpu0.data       16721104                       # Number of bytes read from this memory
system.mem_ctrls.bytes_read::cpu1.inst         106992                       # Number of bytes read from this memory
system.mem_ctrls.bytes_read::cpu1.data         622592                       # Number of bytes read from this memory
system.mem_ctrls.bytes_read::cpu2.inst         522848                       # Number of bytes read from this memory
system.mem_ctrls.bytes_read::cpu2.data        2965792                       # Number of bytes read from this memory
system.mem_ctrls.bytes_read::cpu3.inst         129680                       # Number of bytes read from this memory
system.mem_ctrls.bytes_read::cpu3.data         697280                       # Number of bytes read from this memory
system.mem_ctrls.bytes_read::tsunami.ide         4048                       # Number of bytes read from this memory
system.mem_ctrls.bytes_read::total           22362400                       # Number of bytes read from this memory
system.mem_ctrls.bytes_inst_read::cpu0.inst       592064                       # Number of instructions bytes read from this memory
system.mem_ctrls.bytes_inst_read::cpu1.inst       106992                       # Number of instructions bytes read from this memory
system.mem_ctrls.bytes_inst_read::cpu2.inst       522848                       # Number of instructions bytes read from this memory
system.mem_ctrls.bytes_inst_read::cpu3.inst       129680                       # Number of instructions bytes read from this memory
system.mem_ctrls.bytes_inst_read::total       1351584                       # Number of instructions bytes read from this memory
system.mem_ctrls.bytes_written::writebacks     18719632                       # Number of bytes written to this memory
system.mem_ctrls.bytes_written::total        18719632                       # Number of bytes written to this memory
system.mem_ctrls.num_reads::cpu0.inst           37004                       # Number of read requests responded to by this memory
system.mem_ctrls.num_reads::cpu0.data         1045069                       # Number of read requests responded to by this memory
system.mem_ctrls.num_reads::cpu1.inst            6687                       # Number of read requests responded to by this memory
system.mem_ctrls.num_reads::cpu1.data           38912                       # Number of read requests responded to by this memory
system.mem_ctrls.num_reads::cpu2.inst           32678                       # Number of read requests responded to by this memory
system.mem_ctrls.num_reads::cpu2.data          185362                       # Number of read requests responded to by this memory
system.mem_ctrls.num_reads::cpu3.inst            8105                       # Number of read requests responded to by this memory
system.mem_ctrls.num_reads::cpu3.data           43580                       # Number of read requests responded to by this memory
system.mem_ctrls.num_reads::tsunami.ide           253                       # Number of read requests responded to by this memory
system.mem_ctrls.num_reads::total             1397650                       # Number of read requests responded to by this memory
system.mem_ctrls.num_writes::writebacks       1169977                       # Number of write requests responded to by this memory
system.mem_ctrls.num_writes::total            1169977                       # Number of write requests responded to by this memory
system.mem_ctrls.bw_read::cpu0.inst            233323                       # Total read bandwidth from this memory (bytes/s)
system.mem_ctrls.bw_read::cpu0.data           6589514                       # Total read bandwidth from this memory (bytes/s)
system.mem_ctrls.bw_read::cpu1.inst             42164                       # Total read bandwidth from this memory (bytes/s)
system.mem_ctrls.bw_read::cpu1.data            245353                       # Total read bandwidth from this memory (bytes/s)
system.mem_ctrls.bw_read::cpu2.inst            206046                       # Total read bandwidth from this memory (bytes/s)
system.mem_ctrls.bw_read::cpu2.data           1168770                       # Total read bandwidth from this memory (bytes/s)
system.mem_ctrls.bw_read::cpu3.inst             51105                       # Total read bandwidth from this memory (bytes/s)
system.mem_ctrls.bw_read::cpu3.data            274787                       # Total read bandwidth from this memory (bytes/s)
system.mem_ctrls.bw_read::tsunami.ide            1595                       # Total read bandwidth from this memory (bytes/s)
system.mem_ctrls.bw_read::total               8812657                       # Total read bandwidth from this memory (bytes/s)
system.mem_ctrls.bw_inst_read::cpu0.inst       233323                       # Instruction read bandwidth from this memory (bytes/s)
system.mem_ctrls.bw_inst_read::cpu1.inst        42164                       # Instruction read bandwidth from this memory (bytes/s)
system.mem_ctrls.bw_inst_read::cpu2.inst       206046                       # Instruction read bandwidth from this memory (bytes/s)
system.mem_ctrls.bw_inst_read::cpu3.inst        51105                       # Instruction read bandwidth from this memory (bytes/s)
system.mem_ctrls.bw_inst_read::total           532637                       # Instruction read bandwidth from this memory (bytes/s)
system.mem_ctrls.bw_write::writebacks         7377102                       # Write bandwidth from this memory (bytes/s)
system.mem_ctrls.bw_write::total              7377102                       # Write bandwidth from this memory (bytes/s)
system.mem_ctrls.bw_total::writebacks         7377102                       # Total bandwidth to/from this memory (bytes/s)
system.mem_ctrls.bw_total::cpu0.inst           233323                       # Total bandwidth to/from this memory (bytes/s)
system.mem_ctrls.bw_total::cpu0.data          6589514                       # Total bandwidth to/from this memory (bytes/s)
system.mem_ctrls.bw_total::cpu1.inst            42164                       # Total bandwidth to/from this memory (bytes/s)
system.mem_ctrls.bw_total::cpu1.data           245353                       # Total bandwidth to/from this memory (bytes/s)
system.mem_ctrls.bw_total::cpu2.inst           206046                       # Total bandwidth to/from this memory (bytes/s)
system.mem_ctrls.bw_total::cpu2.data          1168770                       # Total bandwidth to/from this memory (bytes/s)
system.mem_ctrls.bw_total::cpu3.inst            51105                       # Total bandwidth to/from this memory (bytes/s)
system.mem_ctrls.bw_total::cpu3.data           274787                       # Total bandwidth to/from this memory (bytes/s)
system.mem_ctrls.bw_total::tsunami.ide           1595                       # Total bandwidth to/from this memory (bytes/s)
system.mem_ctrls.bw_total::total             16189759                       # Total bandwidth to/from this memory (bytes/s)
system.mem_ctrls.readReqs                     1397650                       # Number of read requests accepted
system.mem_ctrls.writeReqs                    1169977                       # Number of write requests accepted
system.mem_ctrls.readBursts                   1397650                       # Number of DRAM read bursts, including those serviced by the write queue
system.mem_ctrls.writeBursts                  1169977                       # Number of DRAM write bursts, including those merged in the write queue
system.mem_ctrls.bytesReadDRAM               89434432                       # Total number of bytes read from DRAM
system.mem_ctrls.bytesReadWrQ                   15168                       # Total number of bytes read from write queue
system.mem_ctrls.bytesWritten                44549952                       # Total number of bytes written to DRAM
system.mem_ctrls.bytesReadSys                22362400                       # Total read bytes from the system interface side
system.mem_ctrls.bytesWrittenSys             18719632                       # Total written bytes from the system interface side
system.mem_ctrls.servicedByWrQ                    237                       # Number of DRAM read bursts serviced by the write queue
system.mem_ctrls.mergedWrBursts                473869                       # Number of DRAM write bursts merged with an existing one
system.mem_ctrls.neitherReadNorWriteReqs            0                       # Number of requests that are neither read nor write
system.mem_ctrls.perBankRdBursts::0             83228                       # Per bank write bursts
system.mem_ctrls.perBankRdBursts::1             90825                       # Per bank write bursts
system.mem_ctrls.perBankRdBursts::2             87952                       # Per bank write bursts
system.mem_ctrls.perBankRdBursts::3             85888                       # Per bank write bursts
system.mem_ctrls.perBankRdBursts::4             87487                       # Per bank write bursts
system.mem_ctrls.perBankRdBursts::5             90613                       # Per bank write bursts
system.mem_ctrls.perBankRdBursts::6             90621                       # Per bank write bursts
system.mem_ctrls.perBankRdBursts::7             83431                       # Per bank write bursts
system.mem_ctrls.perBankRdBursts::8             78023                       # Per bank write bursts
system.mem_ctrls.perBankRdBursts::9             85178                       # Per bank write bursts
system.mem_ctrls.perBankRdBursts::10            88335                       # Per bank write bursts
system.mem_ctrls.perBankRdBursts::11            86610                       # Per bank write bursts
system.mem_ctrls.perBankRdBursts::12            90481                       # Per bank write bursts
system.mem_ctrls.perBankRdBursts::13            92244                       # Per bank write bursts
system.mem_ctrls.perBankRdBursts::14            88939                       # Per bank write bursts
system.mem_ctrls.perBankRdBursts::15            87558                       # Per bank write bursts
system.mem_ctrls.perBankWrBursts::0             42585                       # Per bank write bursts
system.mem_ctrls.perBankWrBursts::1             46493                       # Per bank write bursts
system.mem_ctrls.perBankWrBursts::2             44627                       # Per bank write bursts
system.mem_ctrls.perBankWrBursts::3             43985                       # Per bank write bursts
system.mem_ctrls.perBankWrBursts::4             44682                       # Per bank write bursts
system.mem_ctrls.perBankWrBursts::5             45011                       # Per bank write bursts
system.mem_ctrls.perBankWrBursts::6             43402                       # Per bank write bursts
system.mem_ctrls.perBankWrBursts::7             43067                       # Per bank write bursts
system.mem_ctrls.perBankWrBursts::8             37927                       # Per bank write bursts
system.mem_ctrls.perBankWrBursts::9             42594                       # Per bank write bursts
system.mem_ctrls.perBankWrBursts::10            40546                       # Per bank write bursts
system.mem_ctrls.perBankWrBursts::11            42138                       # Per bank write bursts
system.mem_ctrls.perBankWrBursts::12            41495                       # Per bank write bursts
system.mem_ctrls.perBankWrBursts::13            45897                       # Per bank write bursts
system.mem_ctrls.perBankWrBursts::14            46050                       # Per bank write bursts
system.mem_ctrls.perBankWrBursts::15            45594                       # Per bank write bursts
system.mem_ctrls.numRdRetry                         0                       # Number of times read queue was full causing retry
system.mem_ctrls.numWrRetry                         0                       # Number of times write queue was full causing retry
system.mem_ctrls.totGap                  2537531855500                       # Total gap between requests
system.mem_ctrls.readPktSize::0                     0                       # Read request sizes (log2)
system.mem_ctrls.readPktSize::1                     0                       # Read request sizes (log2)
system.mem_ctrls.readPktSize::2                     0                       # Read request sizes (log2)
system.mem_ctrls.readPktSize::3                     0                       # Read request sizes (log2)
system.mem_ctrls.readPktSize::4               1397650                       # Read request sizes (log2)
system.mem_ctrls.readPktSize::5                     0                       # Read request sizes (log2)
system.mem_ctrls.readPktSize::6                     0                       # Read request sizes (log2)
system.mem_ctrls.writePktSize::0                    0                       # Write request sizes (log2)
system.mem_ctrls.writePktSize::1                    0                       # Write request sizes (log2)
system.mem_ctrls.writePktSize::2                    0                       # Write request sizes (log2)
system.mem_ctrls.writePktSize::3                    0                       # Write request sizes (log2)
system.mem_ctrls.writePktSize::4              1169977                       # Write request sizes (log2)
system.mem_ctrls.writePktSize::5                    0                       # Write request sizes (log2)
system.mem_ctrls.writePktSize::6                    0                       # Write request sizes (log2)
system.mem_ctrls.rdQLenPdf::0                 1392348                       # What read queue length does an incoming req see
system.mem_ctrls.rdQLenPdf::1                    4596                       # What read queue length does an incoming req see
system.mem_ctrls.rdQLenPdf::2                     224                       # What read queue length does an incoming req see
system.mem_ctrls.rdQLenPdf::3                       9                       # What read queue length does an incoming req see
system.mem_ctrls.rdQLenPdf::4                      15                       # What read queue length does an incoming req see
system.mem_ctrls.rdQLenPdf::5                      19                       # What read queue length does an incoming req see
system.mem_ctrls.rdQLenPdf::6                      17                       # What read queue length does an incoming req see
system.mem_ctrls.rdQLenPdf::7                      20                       # What read queue length does an incoming req see
system.mem_ctrls.rdQLenPdf::8                      41                       # What read queue length does an incoming req see
system.mem_ctrls.rdQLenPdf::9                      48                       # What read queue length does an incoming req see
system.mem_ctrls.rdQLenPdf::10                     20                       # What read queue length does an incoming req see
system.mem_ctrls.rdQLenPdf::11                     14                       # What read queue length does an incoming req see
system.mem_ctrls.rdQLenPdf::12                      9                       # What read queue length does an incoming req see
system.mem_ctrls.rdQLenPdf::13                      6                       # What read queue length does an incoming req see
system.mem_ctrls.rdQLenPdf::14                      6                       # What read queue length does an incoming req see
system.mem_ctrls.rdQLenPdf::15                      5                       # What read queue length does an incoming req see
system.mem_ctrls.rdQLenPdf::16                      5                       # What read queue length does an incoming req see
system.mem_ctrls.rdQLenPdf::17                      3                       # What read queue length does an incoming req see
system.mem_ctrls.rdQLenPdf::18                      3                       # What read queue length does an incoming req see
system.mem_ctrls.rdQLenPdf::19                      3                       # What read queue length does an incoming req see
system.mem_ctrls.rdQLenPdf::20                      2                       # What read queue length does an incoming req see
system.mem_ctrls.rdQLenPdf::21                      0                       # What read queue length does an incoming req see
system.mem_ctrls.rdQLenPdf::22                      0                       # What read queue length does an incoming req see
system.mem_ctrls.rdQLenPdf::23                      0                       # What read queue length does an incoming req see
system.mem_ctrls.rdQLenPdf::24                      0                       # What read queue length does an incoming req see
system.mem_ctrls.rdQLenPdf::25                      0                       # What read queue length does an incoming req see
system.mem_ctrls.rdQLenPdf::26                      0                       # What read queue length does an incoming req see
system.mem_ctrls.rdQLenPdf::27                      0                       # What read queue length does an incoming req see
system.mem_ctrls.rdQLenPdf::28                      0                       # What read queue length does an incoming req see
system.mem_ctrls.rdQLenPdf::29                      0                       # What read queue length does an incoming req see
system.mem_ctrls.rdQLenPdf::30                      0                       # What read queue length does an incoming req see
system.mem_ctrls.rdQLenPdf::31                      0                       # What read queue length does an incoming req see
system.mem_ctrls.wrQLenPdf::0                       1                       # What write queue length does an incoming req see
system.mem_ctrls.wrQLenPdf::1                       1                       # What write queue length does an incoming req see
system.mem_ctrls.wrQLenPdf::2                       1                       # What write queue length does an incoming req see
system.mem_ctrls.wrQLenPdf::3                       1                       # What write queue length does an incoming req see
system.mem_ctrls.wrQLenPdf::4                       1                       # What write queue length does an incoming req see
system.mem_ctrls.wrQLenPdf::5                       1                       # What write queue length does an incoming req see
system.mem_ctrls.wrQLenPdf::6                       1                       # What write queue length does an incoming req see
system.mem_ctrls.wrQLenPdf::7                       1                       # What write queue length does an incoming req see
system.mem_ctrls.wrQLenPdf::8                       1                       # What write queue length does an incoming req see
system.mem_ctrls.wrQLenPdf::9                       1                       # What write queue length does an incoming req see
system.mem_ctrls.wrQLenPdf::10                      1                       # What write queue length does an incoming req see
system.mem_ctrls.wrQLenPdf::11                      1                       # What write queue length does an incoming req see
system.mem_ctrls.wrQLenPdf::12                      1                       # What write queue length does an incoming req see
system.mem_ctrls.wrQLenPdf::13                      1                       # What write queue length does an incoming req see
system.mem_ctrls.wrQLenPdf::14                      1                       # What write queue length does an incoming req see
system.mem_ctrls.wrQLenPdf::15                   5764                       # What write queue length does an incoming req see
system.mem_ctrls.wrQLenPdf::16                   7439                       # What write queue length does an incoming req see
system.mem_ctrls.wrQLenPdf::17                  42685                       # What write queue length does an incoming req see
system.mem_ctrls.wrQLenPdf::18                  42757                       # What write queue length does an incoming req see
system.mem_ctrls.wrQLenPdf::19                  43031                       # What write queue length does an incoming req see
system.mem_ctrls.wrQLenPdf::20                  42804                       # What write queue length does an incoming req see
system.mem_ctrls.wrQLenPdf::21                  42571                       # What write queue length does an incoming req see
system.mem_ctrls.wrQLenPdf::22                  42376                       # What write queue length does an incoming req see
system.mem_ctrls.wrQLenPdf::23                  42351                       # What write queue length does an incoming req see
system.mem_ctrls.wrQLenPdf::24                  42391                       # What write queue length does an incoming req see
system.mem_ctrls.wrQLenPdf::25                  42963                       # What write queue length does an incoming req see
system.mem_ctrls.wrQLenPdf::26                  42741                       # What write queue length does an incoming req see
system.mem_ctrls.wrQLenPdf::27                  42589                       # What write queue length does an incoming req see
system.mem_ctrls.wrQLenPdf::28                  42542                       # What write queue length does an incoming req see
system.mem_ctrls.wrQLenPdf::29                  42382                       # What write queue length does an incoming req see
system.mem_ctrls.wrQLenPdf::30                  42285                       # What write queue length does an incoming req see
system.mem_ctrls.wrQLenPdf::31                  42264                       # What write queue length does an incoming req see
system.mem_ctrls.wrQLenPdf::32                  42145                       # What write queue length does an incoming req see
system.mem_ctrls.wrQLenPdf::33                    192                       # What write queue length does an incoming req see
system.mem_ctrls.wrQLenPdf::34                    190                       # What write queue length does an incoming req see
system.mem_ctrls.wrQLenPdf::35                    146                       # What write queue length does an incoming req see
system.mem_ctrls.wrQLenPdf::36                    131                       # What write queue length does an incoming req see
system.mem_ctrls.wrQLenPdf::37                    122                       # What write queue length does an incoming req see
system.mem_ctrls.wrQLenPdf::38                    109                       # What write queue length does an incoming req see
system.mem_ctrls.wrQLenPdf::39                    102                       # What write queue length does an incoming req see
system.mem_ctrls.wrQLenPdf::40                     94                       # What write queue length does an incoming req see
system.mem_ctrls.wrQLenPdf::41                     80                       # What write queue length does an incoming req see
system.mem_ctrls.wrQLenPdf::42                     73                       # What write queue length does an incoming req see
system.mem_ctrls.wrQLenPdf::43                     88                       # What write queue length does an incoming req see
system.mem_ctrls.wrQLenPdf::44                     84                       # What write queue length does an incoming req see
system.mem_ctrls.wrQLenPdf::45                     80                       # What write queue length does an incoming req see
system.mem_ctrls.wrQLenPdf::46                     69                       # What write queue length does an incoming req see
system.mem_ctrls.wrQLenPdf::47                     56                       # What write queue length does an incoming req see
system.mem_ctrls.wrQLenPdf::48                     58                       # What write queue length does an incoming req see
system.mem_ctrls.wrQLenPdf::49                     56                       # What write queue length does an incoming req see
system.mem_ctrls.wrQLenPdf::50                     60                       # What write queue length does an incoming req see
system.mem_ctrls.wrQLenPdf::51                     52                       # What write queue length does an incoming req see
system.mem_ctrls.wrQLenPdf::52                     51                       # What write queue length does an incoming req see
system.mem_ctrls.wrQLenPdf::53                     49                       # What write queue length does an incoming req see
system.mem_ctrls.wrQLenPdf::54                     37                       # What write queue length does an incoming req see
system.mem_ctrls.wrQLenPdf::55                     23                       # What write queue length does an incoming req see
system.mem_ctrls.wrQLenPdf::56                      6                       # What write queue length does an incoming req see
system.mem_ctrls.wrQLenPdf::57                      5                       # What write queue length does an incoming req see
system.mem_ctrls.wrQLenPdf::58                      0                       # What write queue length does an incoming req see
system.mem_ctrls.wrQLenPdf::59                      0                       # What write queue length does an incoming req see
system.mem_ctrls.wrQLenPdf::60                      0                       # What write queue length does an incoming req see
system.mem_ctrls.wrQLenPdf::61                      0                       # What write queue length does an incoming req see
system.mem_ctrls.wrQLenPdf::62                      0                       # What write queue length does an incoming req see
system.mem_ctrls.wrQLenPdf::63                      0                       # What write queue length does an incoming req see
system.mem_ctrls.bytesPerActivate::samples       331999                       # Bytes accessed per row activation
system.mem_ctrls.bytesPerActivate::mean    403.566902                       # Bytes accessed per row activation
system.mem_ctrls.bytesPerActivate::gmean   236.304638                       # Bytes accessed per row activation
system.mem_ctrls.bytesPerActivate::stdev   376.517647                       # Bytes accessed per row activation
system.mem_ctrls.bytesPerActivate::0-127       101436     30.55%     30.55% # Bytes accessed per row activation
system.mem_ctrls.bytesPerActivate::128-255        65468     19.72%     50.27% # Bytes accessed per row activation
system.mem_ctrls.bytesPerActivate::256-383        32893      9.91%     60.18% # Bytes accessed per row activation
system.mem_ctrls.bytesPerActivate::384-511        20843      6.28%     66.46% # Bytes accessed per row activation
system.mem_ctrls.bytesPerActivate::512-639        15912      4.79%     71.25% # Bytes accessed per row activation
system.mem_ctrls.bytesPerActivate::640-767        10816      3.26%     74.51% # Bytes accessed per row activation
system.mem_ctrls.bytesPerActivate::768-895         9206      2.77%     77.28% # Bytes accessed per row activation
system.mem_ctrls.bytesPerActivate::896-1023         8911      2.68%     79.97% # Bytes accessed per row activation
system.mem_ctrls.bytesPerActivate::1024-1151        66514     20.03%    100.00% # Bytes accessed per row activation
system.mem_ctrls.bytesPerActivate::total       331999                       # Bytes accessed per row activation
system.mem_ctrls.rdPerTurnAround::samples        41999                       # Reads before turning the bus around for writes
system.mem_ctrls.rdPerTurnAround::mean      33.272340                       # Reads before turning the bus around for writes
system.mem_ctrls.rdPerTurnAround::stdev    434.133969                       # Reads before turning the bus around for writes
system.mem_ctrls.rdPerTurnAround::0-4095        41996     99.99%     99.99% # Reads before turning the bus around for writes
system.mem_ctrls.rdPerTurnAround::24576-28671            2      0.00%    100.00% # Reads before turning the bus around for writes
system.mem_ctrls.rdPerTurnAround::77824-81919            1      0.00%    100.00% # Reads before turning the bus around for writes
system.mem_ctrls.rdPerTurnAround::total         41999                       # Reads before turning the bus around for writes
system.mem_ctrls.wrPerTurnAround::samples        41999                       # Writes before turning the bus around for reads
system.mem_ctrls.wrPerTurnAround::mean      16.574037                       # Writes before turning the bus around for reads
system.mem_ctrls.wrPerTurnAround::gmean     16.480505                       # Writes before turning the bus around for reads
system.mem_ctrls.wrPerTurnAround::stdev      2.245448                       # Writes before turning the bus around for reads
system.mem_ctrls.wrPerTurnAround::16-17         36182     86.15%     86.15% # Writes before turning the bus around for reads
system.mem_ctrls.wrPerTurnAround::18-19          4102      9.77%     95.92% # Writes before turning the bus around for reads
system.mem_ctrls.wrPerTurnAround::20-21           533      1.27%     97.19% # Writes before turning the bus around for reads
system.mem_ctrls.wrPerTurnAround::22-23           393      0.94%     98.12% # Writes before turning the bus around for reads
system.mem_ctrls.wrPerTurnAround::24-25           343      0.82%     98.94% # Writes before turning the bus around for reads
system.mem_ctrls.wrPerTurnAround::26-27           254      0.60%     99.54% # Writes before turning the bus around for reads
system.mem_ctrls.wrPerTurnAround::28-29            68      0.16%     99.70% # Writes before turning the bus around for reads
system.mem_ctrls.wrPerTurnAround::30-31             9      0.02%     99.73% # Writes before turning the bus around for reads
system.mem_ctrls.wrPerTurnAround::32-33            14      0.03%     99.76% # Writes before turning the bus around for reads
system.mem_ctrls.wrPerTurnAround::34-35             2      0.00%     99.76% # Writes before turning the bus around for reads
system.mem_ctrls.wrPerTurnAround::36-37            10      0.02%     99.79% # Writes before turning the bus around for reads
system.mem_ctrls.wrPerTurnAround::38-39             6      0.01%     99.80% # Writes before turning the bus around for reads
system.mem_ctrls.wrPerTurnAround::40-41            11      0.03%     99.83% # Writes before turning the bus around for reads
system.mem_ctrls.wrPerTurnAround::42-43            10      0.02%     99.85% # Writes before turning the bus around for reads
system.mem_ctrls.wrPerTurnAround::44-45             6      0.01%     99.87% # Writes before turning the bus around for reads
system.mem_ctrls.wrPerTurnAround::46-47             5      0.01%     99.88% # Writes before turning the bus around for reads
system.mem_ctrls.wrPerTurnAround::48-49             5      0.01%     99.89% # Writes before turning the bus around for reads
system.mem_ctrls.wrPerTurnAround::50-51             7      0.02%     99.91% # Writes before turning the bus around for reads
system.mem_ctrls.wrPerTurnAround::52-53            18      0.04%     99.95% # Writes before turning the bus around for reads
system.mem_ctrls.wrPerTurnAround::54-55             5      0.01%     99.96% # Writes before turning the bus around for reads
system.mem_ctrls.wrPerTurnAround::56-57             4      0.01%     99.97% # Writes before turning the bus around for reads
system.mem_ctrls.wrPerTurnAround::58-59             1      0.00%     99.97% # Writes before turning the bus around for reads
system.mem_ctrls.wrPerTurnAround::60-61             4      0.01%     99.98% # Writes before turning the bus around for reads
system.mem_ctrls.wrPerTurnAround::62-63             3      0.01%     99.99% # Writes before turning the bus around for reads
system.mem_ctrls.wrPerTurnAround::64-65             1      0.00%     99.99% # Writes before turning the bus around for reads
system.mem_ctrls.wrPerTurnAround::66-67             2      0.00%    100.00% # Writes before turning the bus around for reads
system.mem_ctrls.wrPerTurnAround::76-77             1      0.00%    100.00% # Writes before turning the bus around for reads
system.mem_ctrls.wrPerTurnAround::total         41999                       # Writes before turning the bus around for reads
system.mem_ctrls.totQLat                  23502552260                       # Total ticks spent queuing
system.mem_ctrls.totMemAccLat             49704046010                       # Total ticks spent from burst creation until serviced by the DRAM
system.mem_ctrls.totBusLat                 6987065000                       # Total ticks spent in databus transfers
system.mem_ctrls.avgQLat                     16818.62                       # Average queueing delay per DRAM burst
system.mem_ctrls.avgBusLat                    5000.00                       # Average bus latency per DRAM burst
system.mem_ctrls.avgMemAccLat                35568.62                       # Average memory access latency per DRAM burst
system.mem_ctrls.avgRdBW                        35.24                       # Average DRAM read bandwidth in MiByte/s
system.mem_ctrls.avgWrBW                        17.56                       # Average achieved write bandwidth in MiByte/s
system.mem_ctrls.avgRdBWSys                      8.81                       # Average system read bandwidth in MiByte/s
system.mem_ctrls.avgWrBWSys                      7.38                       # Average system write bandwidth in MiByte/s
system.mem_ctrls.peakBW                      12800.00                       # Theoretical peak bandwidth in MiByte/s
system.mem_ctrls.busUtil                         0.41                       # Data bus utilization in percentage
system.mem_ctrls.busUtilRead                     0.28                       # Data bus utilization in percentage for reads
system.mem_ctrls.busUtilWrite                    0.14                       # Data bus utilization in percentage for writes
system.mem_ctrls.avgRdQLen                       1.06                       # Average read queue length when enqueuing
system.mem_ctrls.avgWrQLen                      22.87                       # Average write queue length when enqueuing
system.mem_ctrls.readRowHits                  1237762                       # Number of row buffer hits during reads
system.mem_ctrls.writeRowHits                  523742                       # Number of row buffer hits during writes
system.mem_ctrls.readRowHitRate                 88.58                       # Row buffer hit rate for reads
system.mem_ctrls.writeRowHitRate                75.24                       # Row buffer hit rate for writes
system.mem_ctrls.avgGap                     988279.00                       # Average gap between requests
system.mem_ctrls.pageHitRate                    84.14                       # Row buffer hit rate, read and write combined
system.mem_ctrls_0.actEnergy               1201547760                       # Energy for activate commands per rank (pJ)
system.mem_ctrls_0.preEnergy                638626395                       # Energy for precharge commands per rank (pJ)
system.mem_ctrls_0.readEnergy              4998321300                       # Energy for read commands per rank (pJ)
system.mem_ctrls_0.writeEnergy             1847107440                       # Energy for write commands per rank (pJ)
system.mem_ctrls_0.refreshEnergy         21323705520.000004                       # Energy for refresh commands per rank (pJ)
system.mem_ctrls_0.actBackEnergy          27389667930                       # Energy for active background per rank (pJ)
system.mem_ctrls_0.preBackEnergy           1681322400                       # Energy for precharge background per rank (pJ)
system.mem_ctrls_0.actPowerDownEnergy     44779097970                       # Energy for active power-down per rank (pJ)
system.mem_ctrls_0.prePowerDownEnergy     25609923360                       # Energy for precharge power-down per rank (pJ)
system.mem_ctrls_0.selfRefreshEnergy     557072344920                       # Energy for self refresh per rank (pJ)
system.mem_ctrls_0.totalEnergy           686555419785                       # Total energy per rank (pJ)
system.mem_ctrls_0.averagePower            270.560296                       # Core power per rank (mW)
system.mem_ctrls_0.totalIdleTime         2473057302000                       # Total Idle time Per DRAM Rank
system.mem_ctrls_0.memoryStateTime::IDLE   2860011750                       # Time in different power states
system.mem_ctrls_0.memoryStateTime::REF    9055550000                       # Time in different power states
system.mem_ctrls_0.memoryStateTime::SREF 2308165687250                       # Time in different power states
system.mem_ctrls_0.memoryStateTime::PRE_PDN  66692312500                       # Time in different power states
system.mem_ctrls_0.memoryStateTime::ACT   52559028000                       # Time in different power states
system.mem_ctrls_0.memoryStateTime::ACT_PDN  98199447000                       # Time in different power states
system.mem_ctrls_1.actEnergy               1168946520                       # Energy for activate commands per rank (pJ)
system.mem_ctrls_1.preEnergy                621309810                       # Energy for precharge commands per rank (pJ)
system.mem_ctrls_1.readEnergy              4979207520                       # Energy for read commands per rank (pJ)
system.mem_ctrls_1.writeEnergy             1786498020                       # Energy for write commands per rank (pJ)
system.mem_ctrls_1.refreshEnergy         21082152000.000004                       # Energy for refresh commands per rank (pJ)
system.mem_ctrls_1.actBackEnergy          27231430800                       # Energy for active background per rank (pJ)
system.mem_ctrls_1.preBackEnergy           1709613120                       # Energy for precharge background per rank (pJ)
system.mem_ctrls_1.actPowerDownEnergy     43758837870                       # Energy for active power-down per rank (pJ)
system.mem_ctrls_1.prePowerDownEnergy     25383918720                       # Energy for precharge power-down per rank (pJ)
system.mem_ctrls_1.selfRefreshEnergy     557818939020                       # Energy for self refresh per rank (pJ)
system.mem_ctrls_1.totalEnergy           685554246510                       # Total energy per rank (pJ)
system.mem_ctrls_1.averagePower            270.165750                       # Core power per rank (mW)
system.mem_ctrls_1.totalIdleTime         2473330243491                       # Total Idle time Per DRAM Rank
system.mem_ctrls_1.memoryStateTime::IDLE   2970334250                       # Time in different power states
system.mem_ctrls_1.memoryStateTime::REF    8953550000                       # Time in different power states
system.mem_ctrls_1.memoryStateTime::SREF 2311265731250                       # Time in different power states
system.mem_ctrls_1.memoryStateTime::PRE_PDN  66103851750                       # Time in different power states
system.mem_ctrls_1.memoryStateTime::ACT   52275845259                       # Time in different power states
system.mem_ctrls_1.memoryStateTime::ACT_PDN  95962723991                       # Time in different power states
system.pwrStateResidencyTicks::UNDEFINED 2537532036500                       # Cumulative time (in ticks) in various power states
system.bridge.pwrStateResidencyTicks::UNDEFINED 2537532036500                       # Cumulative time (in ticks) in various power states
system.cpu_voltage_domain.voltage                   1                       # Voltage in Volts
system.cpu_clk_domain.clock                       500                       # Clock period in ticks
system.cpu0.dtb.fetch_hits                          0                       # ITB hits
system.cpu0.dtb.fetch_misses                        0                       # ITB misses
system.cpu0.dtb.fetch_acv                           0                       # ITB acv
system.cpu0.dtb.fetch_accesses                      0                       # ITB accesses
system.cpu0.dtb.read_hits                    11660069                       # DTB read hits
system.cpu0.dtb.read_misses                      3106                       # DTB read misses
system.cpu0.dtb.read_acv                            0                       # DTB read access violations
system.cpu0.dtb.read_accesses                  246038                       # DTB read accesses
system.cpu0.dtb.write_hits                    5672287                       # DTB write hits
system.cpu0.dtb.write_misses                      348                       # DTB write misses
system.cpu0.dtb.write_acv                          33                       # DTB write access violations
system.cpu0.dtb.write_accesses                 108494                       # DTB write accesses
system.cpu0.dtb.data_hits                    17332356                       # DTB hits
system.cpu0.dtb.data_misses                      3454                       # DTB misses
system.cpu0.dtb.data_acv                           33                       # DTB access violations
system.cpu0.dtb.data_accesses                  354532                       # DTB accesses
system.cpu0.itb.fetch_hits                    2558102                       # ITB hits
system.cpu0.itb.fetch_misses                     1280                       # ITB misses
system.cpu0.itb.fetch_acv                           0                       # ITB acv
system.cpu0.itb.fetch_accesses                2559382                       # ITB accesses
system.cpu0.itb.read_hits                           0                       # DTB read hits
system.cpu0.itb.read_misses                         0                       # DTB read misses
system.cpu0.itb.read_acv                            0                       # DTB read access violations
system.cpu0.itb.read_accesses                       0                       # DTB read accesses
system.cpu0.itb.write_hits                          0                       # DTB write hits
system.cpu0.itb.write_misses                        0                       # DTB write misses
system.cpu0.itb.write_acv                           0                       # DTB write access violations
system.cpu0.itb.write_accesses                      0                       # DTB write accesses
system.cpu0.itb.data_hits                           0                       # DTB hits
system.cpu0.itb.data_misses                         0                       # DTB misses
system.cpu0.itb.data_acv                            0                       # DTB access violations
system.cpu0.itb.data_accesses                       0                       # DTB accesses
system.cpu0.numPwrStateTransitions              14160                       # Number of power state transitions
system.cpu0.pwrStateClkGateDist::samples         7080                       # Distribution of time spent in the clock gated state
system.cpu0.pwrStateClkGateDist::mean    323901197.316384                       # Distribution of time spent in the clock gated state
system.cpu0.pwrStateClkGateDist::stdev   449113203.466924                       # Distribution of time spent in the clock gated state
system.cpu0.pwrStateClkGateDist::1000-5e+10         7080    100.00%    100.00% # Distribution of time spent in the clock gated state
system.cpu0.pwrStateClkGateDist::min_value       400000                       # Distribution of time spent in the clock gated state
system.cpu0.pwrStateClkGateDist::max_value   2000000000                       # Distribution of time spent in the clock gated state
system.cpu0.pwrStateClkGateDist::total           7080                       # Distribution of time spent in the clock gated state
system.cpu0.pwrStateResidencyTicks::ON   244311559500                       # Cumulative time (in ticks) in various power states
system.cpu0.pwrStateResidencyTicks::CLK_GATED 2293220477000                       # Cumulative time (in ticks) in various power states
system.cpu0.numCycles                      5075064073                       # number of cpu cycles simulated
system.cpu0.numWorkItemsStarted                     0                       # number of work items this cpu started
system.cpu0.numWorkItemsCompleted                   0                       # number of work items this cpu completed
system.cpu0.kern.inst.arm                           0                       # number of arm instructions executed
system.cpu0.kern.inst.quiesce                    7080                       # number of quiesce instructions executed
system.cpu0.kern.callpal::cserve                    1      0.00%      0.00% # number of callpals executed
system.cpu0.kern.callpal::wripir                 1069      0.83%      0.83% # number of callpals executed
system.cpu0.kern.callpal::wrmces                    1      0.00%      0.83% # number of callpals executed
system.cpu0.kern.callpal::wrfen                     1      0.00%      0.83% # number of callpals executed
system.cpu0.kern.callpal::wrvptptr                  1      0.00%      0.83% # number of callpals executed
system.cpu0.kern.callpal::swpctx                 2081      1.61%      2.44% # number of callpals executed
system.cpu0.kern.callpal::tbi                      11      0.01%      2.44% # number of callpals executed
system.cpu0.kern.callpal::wrent                     7      0.01%      2.45% # number of callpals executed
system.cpu0.kern.callpal::swpipl               116830     90.21%     92.66% # number of callpals executed
system.cpu0.kern.callpal::rdps                   5339      4.12%     96.79% # number of callpals executed
system.cpu0.kern.callpal::wrkgp                     1      0.00%     96.79% # number of callpals executed
system.cpu0.kern.callpal::wrusp                     4      0.00%     96.79% # number of callpals executed
system.cpu0.kern.callpal::rdusp                     3      0.00%     96.79% # number of callpals executed
system.cpu0.kern.callpal::whami                     2      0.00%     96.79% # number of callpals executed
system.cpu0.kern.callpal::rti                    3944      3.05%     99.84% # number of callpals executed
system.cpu0.kern.callpal::callsys                 151      0.12%     99.96% # number of callpals executed
system.cpu0.kern.callpal::imb                      57      0.04%    100.00% # number of callpals executed
system.cpu0.kern.callpal::total                129503                       # number of callpals executed
system.cpu0.kern.inst.hwrei                    137585                       # number of hwrei instructions executed
system.cpu0.kern.mode_switch::kernel             5888                       # number of protection mode switches
system.cpu0.kern.mode_switch::user                482                       # number of protection mode switches
system.cpu0.kern.mode_switch::idle                  0                       # number of protection mode switches
system.cpu0.kern.mode_good::kernel                481                      
system.cpu0.kern.mode_good::user                  482                      
system.cpu0.kern.mode_good::idle                    0                      
system.cpu0.kern.mode_switch_good::kernel     0.081692                       # fraction of useful protection mode switches
system.cpu0.kern.mode_switch_good::user             1                       # fraction of useful protection mode switches
system.cpu0.kern.mode_switch_good::idle           nan                       # fraction of useful protection mode switches
system.cpu0.kern.mode_switch_good::total     0.151177                       # fraction of useful protection mode switches
system.cpu0.kern.mode_ticks::kernel      2534177480500     99.87%     99.87% # number of ticks spent at the given mode
system.cpu0.kern.mode_ticks::user          3352777000      0.13%    100.00% # number of ticks spent at the given mode
system.cpu0.kern.mode_ticks::idle                   0      0.00%    100.00% # number of ticks spent at the given mode
system.cpu0.kern.swap_context                    2082                       # number of times the context was actually changed
system.cpu0.kern.ipl_count::0                   47270     38.09%     38.09% # number of times we switched to this ipl
system.cpu0.kern.ipl_count::21                     11      0.01%     38.10% # number of times we switched to this ipl
system.cpu0.kern.ipl_count::22                   2541      2.05%     40.15% # number of times we switched to this ipl
system.cpu0.kern.ipl_count::30                    762      0.61%     40.76% # number of times we switched to this ipl
system.cpu0.kern.ipl_count::31                  73504     59.24%    100.00% # number of times we switched to this ipl
system.cpu0.kern.ipl_count::total              124088                       # number of times we switched to this ipl
system.cpu0.kern.ipl_good::0                    47109     48.68%     48.68% # number of times we switched to this ipl from a different ipl
system.cpu0.kern.ipl_good::21                      11      0.01%     48.69% # number of times we switched to this ipl from a different ipl
system.cpu0.kern.ipl_good::22                    2541      2.63%     51.32% # number of times we switched to this ipl from a different ipl
system.cpu0.kern.ipl_good::30                     762      0.79%     52.10% # number of times we switched to this ipl from a different ipl
system.cpu0.kern.ipl_good::31                   46349     47.90%    100.00% # number of times we switched to this ipl from a different ipl
system.cpu0.kern.ipl_good::total                96772                       # number of times we switched to this ipl from a different ipl
system.cpu0.kern.ipl_ticks::0            2438933601500     96.11%     96.11% # number of cycles we spent at this ipl
system.cpu0.kern.ipl_ticks::21               10719000      0.00%     96.11% # number of cycles we spent at this ipl
system.cpu0.kern.ipl_ticks::22             1574183000      0.06%     96.18% # number of cycles we spent at this ipl
system.cpu0.kern.ipl_ticks::30             1101279500      0.04%     96.22% # number of cycles we spent at this ipl
system.cpu0.kern.ipl_ticks::31            95910476500      3.78%    100.00% # number of cycles we spent at this ipl
system.cpu0.kern.ipl_ticks::total        2537530259500                       # number of cycles we spent at this ipl
system.cpu0.kern.ipl_used::0                 0.996594                       # fraction of swpipl calls that actually changed the ipl
system.cpu0.kern.ipl_used::21                       1                       # fraction of swpipl calls that actually changed the ipl
system.cpu0.kern.ipl_used::22                       1                       # fraction of swpipl calls that actually changed the ipl
system.cpu0.kern.ipl_used::30                       1                       # fraction of swpipl calls that actually changed the ipl
system.cpu0.kern.ipl_used::31                0.630564                       # fraction of swpipl calls that actually changed the ipl
system.cpu0.kern.ipl_used::total             0.779866                       # fraction of swpipl calls that actually changed the ipl
system.cpu0.committedInsts                   68412787                       # Number of instructions committed
system.cpu0.committedOps                     68412787                       # Number of ops (including micro ops) committed
system.cpu0.num_int_alu_accesses             66091913                       # Number of integer alu accesses
system.cpu0.num_fp_alu_accesses                235440                       # Number of float alu accesses
system.cpu0.num_vec_alu_accesses                    0                       # Number of vector alu accesses
system.cpu0.num_func_calls                    2233348                       # number of times a function call or return occured
system.cpu0.num_conditional_control_insts      9110687                       # number of instructions that are conditional controls
system.cpu0.num_int_insts                    66091913                       # number of integer instructions
system.cpu0.num_fp_insts                       235440                       # number of float instructions
system.cpu0.num_vec_insts                           0                       # number of vector instructions
system.cpu0.num_int_register_reads           89754413                       # number of times the integer registers were read
system.cpu0.num_int_register_writes          50376902                       # number of times the integer registers were written
system.cpu0.num_fp_register_reads               81502                       # number of times the floating registers were read
system.cpu0.num_fp_register_writes              82923                       # number of times the floating registers were written
system.cpu0.num_vec_register_reads                  0                       # number of times the vector registers were read
system.cpu0.num_vec_register_writes                 0                       # number of times the vector registers were written
system.cpu0.num_mem_refs                     17358246                       # number of memory refs
system.cpu0.num_load_insts                   11674962                       # Number of load instructions
system.cpu0.num_store_insts                   5683284                       # Number of store instructions
system.cpu0.num_idle_cycles              4586440953.998193                       # Number of idle cycles
system.cpu0.num_busy_cycles              488623119.001807                       # Number of busy cycles
system.cpu0.not_idle_fraction                0.096279                       # Percentage of non-idle cycles
system.cpu0.idle_fraction                    0.903721                       # Percentage of idle cycles
system.cpu0.Branches                         11766519                       # Number of branches fetched
system.cpu0.op_class::No_OpClass              1398142      2.04%      2.04% # Class of executed instruction
system.cpu0.op_class::IntAlu                 48475831     70.85%     72.90% # Class of executed instruction
system.cpu0.op_class::IntMult                  152194      0.22%     73.12% # Class of executed instruction
system.cpu0.op_class::IntDiv                        0      0.00%     73.12% # Class of executed instruction
system.cpu0.op_class::FloatAdd                  95605      0.14%     73.26% # Class of executed instruction
system.cpu0.op_class::FloatCmp                      0      0.00%     73.26% # Class of executed instruction
system.cpu0.op_class::FloatCvt                      0      0.00%     73.26% # Class of executed instruction
system.cpu0.op_class::FloatMult                     0      0.00%     73.26% # Class of executed instruction
system.cpu0.op_class::FloatMultAcc                  0      0.00%     73.26% # Class of executed instruction
system.cpu0.op_class::FloatDiv                   2102      0.00%     73.26% # Class of executed instruction
system.cpu0.op_class::FloatMisc                     0      0.00%     73.26% # Class of executed instruction
system.cpu0.op_class::FloatSqrt                     0      0.00%     73.26% # Class of executed instruction
system.cpu0.op_class::SimdAdd                       0      0.00%     73.26% # Class of executed instruction
system.cpu0.op_class::SimdAddAcc                    0      0.00%     73.26% # Class of executed instruction
system.cpu0.op_class::SimdAlu                       0      0.00%     73.26% # Class of executed instruction
system.cpu0.op_class::SimdCmp                       0      0.00%     73.26% # Class of executed instruction
system.cpu0.op_class::SimdCvt                       0      0.00%     73.26% # Class of executed instruction
system.cpu0.op_class::SimdMisc                      0      0.00%     73.26% # Class of executed instruction
system.cpu0.op_class::SimdMult                      0      0.00%     73.26% # Class of executed instruction
system.cpu0.op_class::SimdMultAcc                   0      0.00%     73.26% # Class of executed instruction
system.cpu0.op_class::SimdShift                     0      0.00%     73.26% # Class of executed instruction
system.cpu0.op_class::SimdShiftAcc                  0      0.00%     73.26% # Class of executed instruction
system.cpu0.op_class::SimdSqrt                      0      0.00%     73.26% # Class of executed instruction
system.cpu0.op_class::SimdFloatAdd                  0      0.00%     73.26% # Class of executed instruction
system.cpu0.op_class::SimdFloatAlu                  0      0.00%     73.26% # Class of executed instruction
system.cpu0.op_class::SimdFloatCmp                  0      0.00%     73.26% # Class of executed instruction
system.cpu0.op_class::SimdFloatCvt                  0      0.00%     73.26% # Class of executed instruction
system.cpu0.op_class::SimdFloatDiv                  0      0.00%     73.26% # Class of executed instruction
system.cpu0.op_class::SimdFloatMisc                 0      0.00%     73.26% # Class of executed instruction
system.cpu0.op_class::SimdFloatMult                 0      0.00%     73.26% # Class of executed instruction
system.cpu0.op_class::SimdFloatMultAcc              0      0.00%     73.26% # Class of executed instruction
system.cpu0.op_class::SimdFloatSqrt                 0      0.00%     73.26% # Class of executed instruction
system.cpu0.op_class::MemRead                11928377     17.43%     90.70% # Class of executed instruction
system.cpu0.op_class::MemWrite                5633179      8.23%     98.93% # Class of executed instruction
system.cpu0.op_class::FloatMemRead              70630      0.10%     99.04% # Class of executed instruction
system.cpu0.op_class::FloatMemWrite             67103      0.10%     99.13% # Class of executed instruction
system.cpu0.op_class::IprAccess                593111      0.87%    100.00% # Class of executed instruction
system.cpu0.op_class::InstPrefetch                  0      0.00%    100.00% # Class of executed instruction
system.cpu0.op_class::total                  68416274                       # Class of executed instruction
system.cpu0.dcache.tags.pwrStateResidencyTicks::UNDEFINED 2537532036500                       # Cumulative time (in ticks) in various power states
system.cpu0.dcache.tags.replacements          3123046                       # number of replacements
system.cpu0.dcache.tags.tagsinuse         2022.247369                       # Cycle average of tags in use
system.cpu0.dcache.tags.total_refs           14162439                       # Total number of references to valid blocks.
system.cpu0.dcache.tags.sampled_refs          3123046                       # Sample count of references to valid blocks.
system.cpu0.dcache.tags.avg_refs             4.534816                       # Average number of references to valid blocks.
system.cpu0.dcache.tags.warmup_cycle        265721500                       # Cycle when the warmup percentage was hit.
system.cpu0.dcache.tags.occ_blocks::cpu0.data  2022.247369                       # Average occupied blocks per requestor
system.cpu0.dcache.tags.occ_percent::cpu0.data     0.987425                       # Average percentage of cache occupancy
system.cpu0.dcache.tags.occ_percent::total     0.987425                       # Average percentage of cache occupancy
system.cpu0.dcache.tags.occ_task_id_blocks::1024         2048                       # Occupied blocks per task id
system.cpu0.dcache.tags.age_task_id_blocks_1024::0           87                       # Occupied blocks per task id
system.cpu0.dcache.tags.age_task_id_blocks_1024::1          930                       # Occupied blocks per task id
system.cpu0.dcache.tags.age_task_id_blocks_1024::2         1031                       # Occupied blocks per task id
system.cpu0.dcache.tags.occ_task_id_percent::1024            1                       # Percentage of cache occupancy per task id
system.cpu0.dcache.tags.tag_accesses         20505747                       # Number of tag accesses
system.cpu0.dcache.tags.data_accesses        20505747                       # Number of data accesses
system.cpu0.dcache.pwrStateResidencyTicks::UNDEFINED 2537532036500                       # Cumulative time (in ticks) in various power states
system.cpu0.dcache.ReadReq_hits::cpu0.data      9318900                       # number of ReadReq hits
system.cpu0.dcache.ReadReq_hits::total        9318900                       # number of ReadReq hits
system.cpu0.dcache.WriteReq_hits::cpu0.data      4379791                       # number of WriteReq hits
system.cpu0.dcache.WriteReq_hits::total       4379791                       # number of WriteReq hits
system.cpu0.dcache.LoadLockedReq_hits::cpu0.data       210817                       # number of LoadLockedReq hits
system.cpu0.dcache.LoadLockedReq_hits::total       210817                       # number of LoadLockedReq hits
system.cpu0.dcache.StoreCondReq_hits::cpu0.data       215445                       # number of StoreCondReq hits
system.cpu0.dcache.StoreCondReq_hits::total       215445                       # number of StoreCondReq hits
system.cpu0.dcache.demand_hits::cpu0.data     13698691                       # number of demand (read+write) hits
system.cpu0.dcache.demand_hits::total        13698691                       # number of demand (read+write) hits
system.cpu0.dcache.overall_hits::cpu0.data     13698691                       # number of overall hits
system.cpu0.dcache.overall_hits::total       13698691                       # number of overall hits
system.cpu0.dcache.ReadReq_misses::cpu0.data      2117470                       # number of ReadReq misses
system.cpu0.dcache.ReadReq_misses::total      2117470                       # number of ReadReq misses
system.cpu0.dcache.WriteReq_misses::cpu0.data      1063860                       # number of WriteReq misses
system.cpu0.dcache.WriteReq_misses::total      1063860                       # number of WriteReq misses
system.cpu0.dcache.LoadLockedReq_misses::cpu0.data        19447                       # number of LoadLockedReq misses
system.cpu0.dcache.LoadLockedReq_misses::total        19447                       # number of LoadLockedReq misses
system.cpu0.dcache.StoreCondReq_misses::cpu0.data         9928                       # number of StoreCondReq misses
system.cpu0.dcache.StoreCondReq_misses::total         9928                       # number of StoreCondReq misses
system.cpu0.dcache.demand_misses::cpu0.data      3181330                       # number of demand (read+write) misses
system.cpu0.dcache.demand_misses::total       3181330                       # number of demand (read+write) misses
system.cpu0.dcache.overall_misses::cpu0.data      3181330                       # number of overall misses
system.cpu0.dcache.overall_misses::total      3181330                       # number of overall misses
system.cpu0.dcache.ReadReq_miss_latency::cpu0.data  51677027000                       # number of ReadReq miss cycles
system.cpu0.dcache.ReadReq_miss_latency::total  51677027000                       # number of ReadReq miss cycles
system.cpu0.dcache.WriteReq_miss_latency::cpu0.data  66360117000                       # number of WriteReq miss cycles
system.cpu0.dcache.WriteReq_miss_latency::total  66360117000                       # number of WriteReq miss cycles
system.cpu0.dcache.LoadLockedReq_miss_latency::cpu0.data    227971000                       # number of LoadLockedReq miss cycles
system.cpu0.dcache.LoadLockedReq_miss_latency::total    227971000                       # number of LoadLockedReq miss cycles
system.cpu0.dcache.StoreCondReq_miss_latency::cpu0.data     52956000                       # number of StoreCondReq miss cycles
system.cpu0.dcache.StoreCondReq_miss_latency::total     52956000                       # number of StoreCondReq miss cycles
system.cpu0.dcache.demand_miss_latency::cpu0.data 118037144000                       # number of demand (read+write) miss cycles
system.cpu0.dcache.demand_miss_latency::total 118037144000                       # number of demand (read+write) miss cycles
system.cpu0.dcache.overall_miss_latency::cpu0.data 118037144000                       # number of overall miss cycles
system.cpu0.dcache.overall_miss_latency::total 118037144000                       # number of overall miss cycles
system.cpu0.dcache.ReadReq_accesses::cpu0.data     11436370                       # number of ReadReq accesses(hits+misses)
system.cpu0.dcache.ReadReq_accesses::total     11436370                       # number of ReadReq accesses(hits+misses)
system.cpu0.dcache.WriteReq_accesses::cpu0.data      5443651                       # number of WriteReq accesses(hits+misses)
system.cpu0.dcache.WriteReq_accesses::total      5443651                       # number of WriteReq accesses(hits+misses)
system.cpu0.dcache.LoadLockedReq_accesses::cpu0.data       230264                       # number of LoadLockedReq accesses(hits+misses)
system.cpu0.dcache.LoadLockedReq_accesses::total       230264                       # number of LoadLockedReq accesses(hits+misses)
system.cpu0.dcache.StoreCondReq_accesses::cpu0.data       225373                       # number of StoreCondReq accesses(hits+misses)
system.cpu0.dcache.StoreCondReq_accesses::total       225373                       # number of StoreCondReq accesses(hits+misses)
system.cpu0.dcache.demand_accesses::cpu0.data     16880021                       # number of demand (read+write) accesses
system.cpu0.dcache.demand_accesses::total     16880021                       # number of demand (read+write) accesses
system.cpu0.dcache.overall_accesses::cpu0.data     16880021                       # number of overall (read+write) accesses
system.cpu0.dcache.overall_accesses::total     16880021                       # number of overall (read+write) accesses
system.cpu0.dcache.ReadReq_miss_rate::cpu0.data     0.185152                       # miss rate for ReadReq accesses
system.cpu0.dcache.ReadReq_miss_rate::total     0.185152                       # miss rate for ReadReq accesses
system.cpu0.dcache.WriteReq_miss_rate::cpu0.data     0.195431                       # miss rate for WriteReq accesses
system.cpu0.dcache.WriteReq_miss_rate::total     0.195431                       # miss rate for WriteReq accesses
system.cpu0.dcache.LoadLockedReq_miss_rate::cpu0.data     0.084455                       # miss rate for LoadLockedReq accesses
system.cpu0.dcache.LoadLockedReq_miss_rate::total     0.084455                       # miss rate for LoadLockedReq accesses
system.cpu0.dcache.StoreCondReq_miss_rate::cpu0.data     0.044051                       # miss rate for StoreCondReq accesses
system.cpu0.dcache.StoreCondReq_miss_rate::total     0.044051                       # miss rate for StoreCondReq accesses
system.cpu0.dcache.demand_miss_rate::cpu0.data     0.188467                       # miss rate for demand accesses
system.cpu0.dcache.demand_miss_rate::total     0.188467                       # miss rate for demand accesses
system.cpu0.dcache.overall_miss_rate::cpu0.data     0.188467                       # miss rate for overall accesses
system.cpu0.dcache.overall_miss_rate::total     0.188467                       # miss rate for overall accesses
system.cpu0.dcache.ReadReq_avg_miss_latency::cpu0.data 24405.081064                       # average ReadReq miss latency
system.cpu0.dcache.ReadReq_avg_miss_latency::total 24405.081064                       # average ReadReq miss latency
system.cpu0.dcache.WriteReq_avg_miss_latency::cpu0.data 62376.738481                       # average WriteReq miss latency
system.cpu0.dcache.WriteReq_avg_miss_latency::total 62376.738481                       # average WriteReq miss latency
system.cpu0.dcache.LoadLockedReq_avg_miss_latency::cpu0.data 11722.682162                       # average LoadLockedReq miss latency
system.cpu0.dcache.LoadLockedReq_avg_miss_latency::total 11722.682162                       # average LoadLockedReq miss latency
system.cpu0.dcache.StoreCondReq_avg_miss_latency::cpu0.data  5334.004835                       # average StoreCondReq miss latency
system.cpu0.dcache.StoreCondReq_avg_miss_latency::total  5334.004835                       # average StoreCondReq miss latency
system.cpu0.dcache.demand_avg_miss_latency::cpu0.data 37103.080787                       # average overall miss latency
system.cpu0.dcache.demand_avg_miss_latency::total 37103.080787                       # average overall miss latency
system.cpu0.dcache.overall_avg_miss_latency::cpu0.data 37103.080787                       # average overall miss latency
system.cpu0.dcache.overall_avg_miss_latency::total 37103.080787                       # average overall miss latency
system.cpu0.dcache.blocked_cycles::no_mshrs            0                       # number of cycles access was blocked
system.cpu0.dcache.blocked_cycles::no_targets            0                       # number of cycles access was blocked
system.cpu0.dcache.blocked::no_mshrs                0                       # number of cycles access was blocked
system.cpu0.dcache.blocked::no_targets              0                       # number of cycles access was blocked
system.cpu0.dcache.avg_blocked_cycles::no_mshrs          nan                       # average number of cycles each access was blocked
system.cpu0.dcache.avg_blocked_cycles::no_targets          nan                       # average number of cycles each access was blocked
system.cpu0.dcache.writebacks::writebacks      2654207                       # number of writebacks
system.cpu0.dcache.writebacks::total          2654207                       # number of writebacks
system.cpu0.dcache.ReadReq_mshr_misses::cpu0.data      2117470                       # number of ReadReq MSHR misses
system.cpu0.dcache.ReadReq_mshr_misses::total      2117470                       # number of ReadReq MSHR misses
system.cpu0.dcache.WriteReq_mshr_misses::cpu0.data      1063860                       # number of WriteReq MSHR misses
system.cpu0.dcache.WriteReq_mshr_misses::total      1063860                       # number of WriteReq MSHR misses
system.cpu0.dcache.LoadLockedReq_mshr_misses::cpu0.data        19447                       # number of LoadLockedReq MSHR misses
system.cpu0.dcache.LoadLockedReq_mshr_misses::total        19447                       # number of LoadLockedReq MSHR misses
system.cpu0.dcache.StoreCondReq_mshr_misses::cpu0.data         9928                       # number of StoreCondReq MSHR misses
system.cpu0.dcache.StoreCondReq_mshr_misses::total         9928                       # number of StoreCondReq MSHR misses
system.cpu0.dcache.demand_mshr_misses::cpu0.data      3181330                       # number of demand (read+write) MSHR misses
system.cpu0.dcache.demand_mshr_misses::total      3181330                       # number of demand (read+write) MSHR misses
system.cpu0.dcache.overall_mshr_misses::cpu0.data      3181330                       # number of overall MSHR misses
system.cpu0.dcache.overall_mshr_misses::total      3181330                       # number of overall MSHR misses
system.cpu0.dcache.ReadReq_mshr_uncacheable::cpu0.data         5222                       # number of ReadReq MSHR uncacheable
system.cpu0.dcache.ReadReq_mshr_uncacheable::total         5222                       # number of ReadReq MSHR uncacheable
system.cpu0.dcache.WriteReq_mshr_uncacheable::cpu0.data         9931                       # number of WriteReq MSHR uncacheable
system.cpu0.dcache.WriteReq_mshr_uncacheable::total         9931                       # number of WriteReq MSHR uncacheable
system.cpu0.dcache.overall_mshr_uncacheable_misses::cpu0.data        15153                       # number of overall MSHR uncacheable misses
system.cpu0.dcache.overall_mshr_uncacheable_misses::total        15153                       # number of overall MSHR uncacheable misses
system.cpu0.dcache.ReadReq_mshr_miss_latency::cpu0.data  49559557000                       # number of ReadReq MSHR miss cycles
system.cpu0.dcache.ReadReq_mshr_miss_latency::total  49559557000                       # number of ReadReq MSHR miss cycles
system.cpu0.dcache.WriteReq_mshr_miss_latency::cpu0.data  65296257000                       # number of WriteReq MSHR miss cycles
system.cpu0.dcache.WriteReq_mshr_miss_latency::total  65296257000                       # number of WriteReq MSHR miss cycles
system.cpu0.dcache.LoadLockedReq_mshr_miss_latency::cpu0.data    208524000                       # number of LoadLockedReq MSHR miss cycles
system.cpu0.dcache.LoadLockedReq_mshr_miss_latency::total    208524000                       # number of LoadLockedReq MSHR miss cycles
system.cpu0.dcache.StoreCondReq_mshr_miss_latency::cpu0.data     43028000                       # number of StoreCondReq MSHR miss cycles
system.cpu0.dcache.StoreCondReq_mshr_miss_latency::total     43028000                       # number of StoreCondReq MSHR miss cycles
system.cpu0.dcache.demand_mshr_miss_latency::cpu0.data 114855814000                       # number of demand (read+write) MSHR miss cycles
system.cpu0.dcache.demand_mshr_miss_latency::total 114855814000                       # number of demand (read+write) MSHR miss cycles
system.cpu0.dcache.overall_mshr_miss_latency::cpu0.data 114855814000                       # number of overall MSHR miss cycles
system.cpu0.dcache.overall_mshr_miss_latency::total 114855814000                       # number of overall MSHR miss cycles
system.cpu0.dcache.ReadReq_mshr_uncacheable_latency::cpu0.data   1189358500                       # number of ReadReq MSHR uncacheable cycles
system.cpu0.dcache.ReadReq_mshr_uncacheable_latency::total   1189358500                       # number of ReadReq MSHR uncacheable cycles
system.cpu0.dcache.overall_mshr_uncacheable_latency::cpu0.data   1189358500                       # number of overall MSHR uncacheable cycles
system.cpu0.dcache.overall_mshr_uncacheable_latency::total   1189358500                       # number of overall MSHR uncacheable cycles
system.cpu0.dcache.ReadReq_mshr_miss_rate::cpu0.data     0.185152                       # mshr miss rate for ReadReq accesses
system.cpu0.dcache.ReadReq_mshr_miss_rate::total     0.185152                       # mshr miss rate for ReadReq accesses
system.cpu0.dcache.WriteReq_mshr_miss_rate::cpu0.data     0.195431                       # mshr miss rate for WriteReq accesses
system.cpu0.dcache.WriteReq_mshr_miss_rate::total     0.195431                       # mshr miss rate for WriteReq accesses
system.cpu0.dcache.LoadLockedReq_mshr_miss_rate::cpu0.data     0.084455                       # mshr miss rate for LoadLockedReq accesses
system.cpu0.dcache.LoadLockedReq_mshr_miss_rate::total     0.084455                       # mshr miss rate for LoadLockedReq accesses
system.cpu0.dcache.StoreCondReq_mshr_miss_rate::cpu0.data     0.044051                       # mshr miss rate for StoreCondReq accesses
system.cpu0.dcache.StoreCondReq_mshr_miss_rate::total     0.044051                       # mshr miss rate for StoreCondReq accesses
system.cpu0.dcache.demand_mshr_miss_rate::cpu0.data     0.188467                       # mshr miss rate for demand accesses
system.cpu0.dcache.demand_mshr_miss_rate::total     0.188467                       # mshr miss rate for demand accesses
system.cpu0.dcache.overall_mshr_miss_rate::cpu0.data     0.188467                       # mshr miss rate for overall accesses
system.cpu0.dcache.overall_mshr_miss_rate::total     0.188467                       # mshr miss rate for overall accesses
system.cpu0.dcache.ReadReq_avg_mshr_miss_latency::cpu0.data 23405.081064                       # average ReadReq mshr miss latency
system.cpu0.dcache.ReadReq_avg_mshr_miss_latency::total 23405.081064                       # average ReadReq mshr miss latency
system.cpu0.dcache.WriteReq_avg_mshr_miss_latency::cpu0.data 61376.738481                       # average WriteReq mshr miss latency
system.cpu0.dcache.WriteReq_avg_mshr_miss_latency::total 61376.738481                       # average WriteReq mshr miss latency
system.cpu0.dcache.LoadLockedReq_avg_mshr_miss_latency::cpu0.data 10722.682162                       # average LoadLockedReq mshr miss latency
system.cpu0.dcache.LoadLockedReq_avg_mshr_miss_latency::total 10722.682162                       # average LoadLockedReq mshr miss latency
system.cpu0.dcache.StoreCondReq_avg_mshr_miss_latency::cpu0.data  4334.004835                       # average StoreCondReq mshr miss latency
system.cpu0.dcache.StoreCondReq_avg_mshr_miss_latency::total  4334.004835                       # average StoreCondReq mshr miss latency
system.cpu0.dcache.demand_avg_mshr_miss_latency::cpu0.data 36103.080787                       # average overall mshr miss latency
system.cpu0.dcache.demand_avg_mshr_miss_latency::total 36103.080787                       # average overall mshr miss latency
system.cpu0.dcache.overall_avg_mshr_miss_latency::cpu0.data 36103.080787                       # average overall mshr miss latency
system.cpu0.dcache.overall_avg_mshr_miss_latency::total 36103.080787                       # average overall mshr miss latency
system.cpu0.dcache.ReadReq_avg_mshr_uncacheable_latency::cpu0.data 227759.191881                       # average ReadReq mshr uncacheable latency
system.cpu0.dcache.ReadReq_avg_mshr_uncacheable_latency::total 227759.191881                       # average ReadReq mshr uncacheable latency
system.cpu0.dcache.overall_avg_mshr_uncacheable_latency::cpu0.data 78489.968983                       # average overall mshr uncacheable latency
system.cpu0.dcache.overall_avg_mshr_uncacheable_latency::total 78489.968983                       # average overall mshr uncacheable latency
system.cpu0.icache.tags.pwrStateResidencyTicks::UNDEFINED 2537532036500                       # Cumulative time (in ticks) in various power states
system.cpu0.icache.tags.replacements          3007962                       # number of replacements
system.cpu0.icache.tags.tagsinuse          511.852765                       # Cycle average of tags in use
system.cpu0.icache.tags.total_refs           65383187                       # Total number of references to valid blocks.
[...]
system.membus.pkt_size::total                 1904799                       # Cumulative packet size per connected master and slave (bytes)
system.membus.snoops                             7049                       # Total snoops (count)
system.membus.snoopTraffic                        480                       # Total snoop traffic (bytes)
system.membus.snoop_fanout::samples             95495                       # Request fanout histogram
system.membus.snoop_fanout::mean             0.061532                       # Request fanout histogram
system.membus.snoop_fanout::stdev            0.240305                       # Request fanout histogram
system.membus.snoop_fanout::underflows              0      0.00%      0.00% # Request fanout histogram
system.membus.snoop_fanout::0                   89619     93.85%     93.85% # Request fanout histogram
system.membus.snoop_fanout::1                    5876      6.15%    100.00% # Request fanout histogram
system.membus.snoop_fanout::2                       0      0.00%    100.00% # Request fanout histogram
system.membus.snoop_fanout::overflows               0      0.00%    100.00% # Request fanout histogram
system.membus.snoop_fanout::min_value               0                       # Request fanout histogram
system.membus.snoop_fanout::max_value               1                       # Request fanout histogram
system.membus.snoop_fanout::total               95495                       # Request fanout histogram
system.membus.reqLayer0.occupancy             1858500                       # Layer occupancy (ticks)
system.membus.reqLayer0.utilization               0.0                       # Layer utilization (%)
system.membus.reqLayer1.occupancy           252105336                       # Layer occupancy (ticks)
system.membus.reqLayer1.utilization               3.0                       # Layer utilization (%)
system.membus.respLayer1.occupancy            6092073                       # Layer occupancy (ticks)
system.membus.respLayer1.utilization              0.1                       # Layer utilization (%)
system.membus.respLayer2.occupancy          110557250                       # Layer occupancy (ticks)
system.membus.respLayer2.utilization              1.3                       # Layer utilization (%)
system.membus.badaddr_responder.pwrStateResidencyTicks::UNDEFINED   8457875000                       # Cumulative time (in ticks) in various power states
system.tol2bus.snoop_filter.tot_requests       494455                       # Total number of requests made to the snoop filter.
system.tol2bus.snoop_filter.hit_single_requests       230867                       # Number of requests hitting in the snoop filter with a single holder of the requested data.
system.tol2bus.snoop_filter.hit_multi_requests        53256                       # Number of requests hitting in the snoop filter with multiple (>1) holders of the requested data.
system.tol2bus.snoop_filter.tot_snoops           3456                       # Total number of snoops made to the snoop filter.
system.tol2bus.snoop_filter.hit_single_snoops         3267                       # Number of snoops hitting in the snoop filter with a single holder of the requested data.
system.tol2bus.snoop_filter.hit_multi_snoops          189                       # Number of snoops hitting in the snoop filter with multiple (>1) holders of the requested data.
system.tol2bus.pwrStateResidencyTicks::UNDEFINED   8457875000                       # Cumulative time (in ticks) in various power states
system.tol2bus.trans_dist::ReadReq                592                       # Transaction distribution
system.tol2bus.trans_dist::ReadResp            187433                       # Transaction distribution
system.tol2bus.trans_dist::WriteReq               486                       # Transaction distribution
system.tol2bus.trans_dist::WriteResp              486                       # Transaction distribution
system.tol2bus.trans_dist::WritebackDirty       110280                       # Transaction distribution
system.tol2bus.trans_dist::WritebackClean       135077                       # Transaction distribution
system.tol2bus.trans_dist::CleanEvict           43031                       # Transaction distribution
system.tol2bus.trans_dist::UpgradeReq            1155                       # Transaction distribution
system.tol2bus.trans_dist::SCUpgradeReq           354                       # Transaction distribution
system.tol2bus.trans_dist::UpgradeResp           1509                       # Transaction distribution
system.tol2bus.trans_dist::ReadExReq            61866                       # Transaction distribution
system.tol2bus.trans_dist::ReadExResp           61866                       # Transaction distribution
system.tol2bus.trans_dist::ReadCleanReq        135082                       # Transaction distribution
system.tol2bus.trans_dist::ReadSharedReq        51769                       # Transaction distribution
system.tol2bus.trans_dist::InvalidateReq         5846                       # Transaction distribution
system.tol2bus.trans_dist::InvalidateResp          521                       # Transaction distribution
system.tol2bus.pkt_count_system.cpu0.icache.mem_side::system.l2.cpu_side       114467                       # Packet count per connected master and slave (bytes)
system.tol2bus.pkt_count_system.cpu0.dcache.mem_side::system.l2.cpu_side       172187                       # Packet count per connected master and slave (bytes)
system.tol2bus.pkt_count_system.cpu1.icache.mem_side::system.l2.cpu_side        26544                       # Packet count per connected master and slave (bytes)
system.tol2bus.pkt_count_system.cpu1.dcache.mem_side::system.l2.cpu_side        23505                       # Packet count per connected master and slave (bytes)
system.tol2bus.pkt_count_system.cpu2.icache.mem_side::system.l2.cpu_side       176136                       # Packet count per connected master and slave (bytes)
system.tol2bus.pkt_count_system.cpu2.dcache.mem_side::system.l2.cpu_side        90578                       # Packet count per connected master and slave (bytes)
system.tol2bus.pkt_count_system.cpu3.icache.mem_side::system.l2.cpu_side        88092                       # Packet count per connected master and slave (bytes)
system.tol2bus.pkt_count_system.cpu3.dcache.mem_side::system.l2.cpu_side        47064                       # Packet count per connected master and slave (bytes)
system.tol2bus.pkt_count::total                738573                       # Packet count per connected master and slave (bytes)
system.tol2bus.pkt_size_system.cpu0.icache.mem_side::system.l2.cpu_side      1220960                       # Cumulative packet size per connected master and slave (bytes)
system.tol2bus.pkt_size_system.cpu0.dcache.mem_side::system.l2.cpu_side      1602812                       # Cumulative packet size per connected master and slave (bytes)
system.tol2bus.pkt_size_system.cpu1.icache.mem_side::system.l2.cpu_side       283136                       # Cumulative packet size per connected master and slave (bytes)
system.tol2bus.pkt_size_system.cpu1.dcache.mem_side::system.l2.cpu_side       197108                       # Cumulative packet size per connected master and slave (bytes)
system.tol2bus.pkt_size_system.cpu2.icache.mem_side::system.l2.cpu_side      1878768                       # Cumulative packet size per connected master and slave (bytes)
system.tol2bus.pkt_size_system.cpu2.dcache.mem_side::system.l2.cpu_side       827111                       # Cumulative packet size per connected master and slave (bytes)
system.tol2bus.pkt_size_system.cpu3.icache.mem_side::system.l2.cpu_side       939648                       # Cumulative packet size per connected master and slave (bytes)
system.tol2bus.pkt_size_system.cpu3.dcache.mem_side::system.l2.cpu_side       422328                       # Cumulative packet size per connected master and slave (bytes)
system.tol2bus.pkt_size::total                7371871                       # Cumulative packet size per connected master and slave (bytes)
system.tol2bus.snoops                           59321                       # Total snoops (count)
system.tol2bus.snoopTraffic                    535520                       # Total snoop traffic (bytes)
system.tol2bus.snoop_fanout::samples           301279                       # Request fanout histogram
system.tol2bus.snoop_fanout::mean            0.224715                       # Request fanout histogram
system.tol2bus.snoop_fanout::stdev           0.624409                       # Request fanout histogram
system.tol2bus.snoop_fanout::underflows             0      0.00%      0.00% # Request fanout histogram
system.tol2bus.snoop_fanout::0                 258024     85.64%     85.64% # Request fanout histogram
system.tol2bus.snoop_fanout::1                  26848      8.91%     94.55% # Request fanout histogram
system.tol2bus.snoop_fanout::2                   8368      2.78%     97.33% # Request fanout histogram
system.tol2bus.snoop_fanout::3                   8038      2.67%    100.00% # Request fanout histogram
system.tol2bus.snoop_fanout::4                      1      0.00%    100.00% # Request fanout histogram
system.tol2bus.snoop_fanout::5                      0      0.00%    100.00% # Request fanout histogram
system.tol2bus.snoop_fanout::6                      0      0.00%    100.00% # Request fanout histogram
system.tol2bus.snoop_fanout::7                      0      0.00%    100.00% # Request fanout histogram
system.tol2bus.snoop_fanout::8                      0      0.00%    100.00% # Request fanout histogram
system.tol2bus.snoop_fanout::overflows              0      0.00%    100.00% # Request fanout histogram
system.tol2bus.snoop_fanout::min_value              0                       # Request fanout histogram
system.tol2bus.snoop_fanout::max_value              4                       # Request fanout histogram
system.tol2bus.snoop_fanout::total             301279                       # Request fanout histogram
system.tol2bus.reqLayer0.occupancy          357709499                       # Layer occupancy (ticks)
system.tol2bus.reqLayer0.utilization              4.2                       # Layer utilization (%)
system.tol2bus.snoopLayer0.occupancy           293973                       # Layer occupancy (ticks)
system.tol2bus.snoopLayer0.utilization            0.0                       # Layer utilization (%)
system.tol2bus.respLayer0.occupancy          38184943                       # Layer occupancy (ticks)
system.tol2bus.respLayer0.utilization             0.5                       # Layer utilization (%)
system.tol2bus.respLayer1.occupancy          58397900                       # Layer occupancy (ticks)
system.tol2bus.respLayer1.utilization             0.7                       # Layer utilization (%)
system.tol2bus.respLayer2.occupancy           8865964                       # Layer occupancy (ticks)
system.tol2bus.respLayer2.utilization             0.1                       # Layer utilization (%)
system.tol2bus.respLayer3.occupancy           8572921                       # Layer occupancy (ticks)
system.tol2bus.respLayer3.utilization             0.1                       # Layer utilization (%)
system.tol2bus.respLayer4.occupancy          58762900                       # Layer occupancy (ticks)
system.tol2bus.respLayer4.utilization             0.7                       # Layer utilization (%)
system.tol2bus.respLayer5.occupancy          31902904                       # Layer occupancy (ticks)
system.tol2bus.respLayer5.utilization             0.4                       # Layer utilization (%)
system.tol2bus.respLayer6.occupancy          29406914                       # Layer occupancy (ticks)
system.tol2bus.respLayer6.utilization             0.3                       # Layer utilization (%)
system.tol2bus.respLayer7.occupancy          16517381                       # Layer occupancy (ticks)
system.tol2bus.respLayer7.utilization             0.2                       # Layer utilization (%)
system.tsunami.backdoor.pwrStateResidencyTicks::UNDEFINED   8457875000                       # Cumulative time (in ticks) in various power states
system.tsunami.cchip.pwrStateResidencyTicks::UNDEFINED   8457875000                       # Cumulative time (in ticks) in various power states
system.tsunami.pchip.pwrStateResidencyTicks::UNDEFINED   8457875000                       # Cumulative time (in ticks) in various power states
system.tsunami.ethernet.pwrStateResidencyTicks::UNDEFINED   8457875000                       # Cumulative time (in ticks) in various power states
system.tsunami.ethernet.descDMAReads                0                       # Number of descriptors the device read w/ DMA
system.tsunami.ethernet.descDMAWrites               0                       # Number of descriptors the device wrote w/ DMA
system.tsunami.ethernet.descDmaReadBytes            0                       # number of descriptor bytes read w/ DMA
system.tsunami.ethernet.descDmaWriteBytes            0                       # number of descriptor bytes write w/ DMA
system.tsunami.ethernet.postedSwi                   0                       # number of software interrupts posted to CPU
system.tsunami.ethernet.coalescedSwi              nan                       # average number of Swi's coalesced into each post
system.tsunami.ethernet.totalSwi                    0                       # total number of Swi written to ISR
system.tsunami.ethernet.postedRxIdle                0                       # number of rxIdle interrupts posted to CPU
system.tsunami.ethernet.coalescedRxIdle           nan                       # average number of RxIdle's coalesced into each post
system.tsunami.ethernet.totalRxIdle                 0                       # total number of RxIdle written to ISR
system.tsunami.ethernet.postedRxOk                  0                       # number of RxOk interrupts posted to CPU
system.tsunami.ethernet.coalescedRxOk             nan                       # average number of RxOk's coalesced into each post
system.tsunami.ethernet.totalRxOk                   0                       # total number of RxOk written to ISR
system.tsunami.ethernet.postedRxDesc                0                       # number of RxDesc interrupts posted to CPU
system.tsunami.ethernet.coalescedRxDesc           nan                       # average number of RxDesc's coalesced into each post
system.tsunami.ethernet.totalRxDesc                 0                       # total number of RxDesc written to ISR
system.tsunami.ethernet.postedTxOk                  0                       # number of TxOk interrupts posted to CPU
system.tsunami.ethernet.coalescedTxOk             nan                       # average number of TxOk's coalesced into each post
system.tsunami.ethernet.totalTxOk                   0                       # total number of TxOk written to ISR
system.tsunami.ethernet.postedTxIdle                0                       # number of TxIdle interrupts posted to CPU
system.tsunami.ethernet.coalescedTxIdle           nan                       # average number of TxIdle's coalesced into each post
system.tsunami.ethernet.totalTxIdle                 0                       # total number of TxIdle written to ISR
system.tsunami.ethernet.postedTxDesc                0                       # number of TxDesc interrupts posted to CPU
system.tsunami.ethernet.coalescedTxDesc           nan                       # average number of TxDesc's coalesced into each post
system.tsunami.ethernet.totalTxDesc                 0                       # total number of TxDesc written to ISR
system.tsunami.ethernet.postedRxOrn                 0                       # number of RxOrn posted to CPU
system.tsunami.ethernet.coalescedRxOrn            nan                       # average number of RxOrn's coalesced into each post
system.tsunami.ethernet.totalRxOrn                  0                       # total number of RxOrn written to ISR
system.tsunami.ethernet.coalescedTotal            nan                       # average number of interrupts coalesced into each post
system.tsunami.ethernet.postedInterrupts            0                       # number of posts to CPU
system.tsunami.ethernet.droppedPackets              0                       # number of packets dropped
system.tsunami.fake_OROM.pwrStateResidencyTicks::UNDEFINED   8457875000                       # Cumulative time (in ticks) in various power states
system.tsunami.fake_ata0.pwrStateResidencyTicks::UNDEFINED   8457875000                       # Cumulative time (in ticks) in various power states
system.tsunami.fake_ata1.pwrStateResidencyTicks::UNDEFINED   8457875000                       # Cumulative time (in ticks) in various power states
system.tsunami.fake_pnp_addr.pwrStateResidencyTicks::UNDEFINED   8457875000                       # Cumulative time (in ticks) in various power states
system.tsunami.fake_pnp_read0.pwrStateResidencyTicks::UNDEFINED   8457875000                       # Cumulative time (in ticks) in various power states
system.tsunami.fake_pnp_read1.pwrStateResidencyTicks::UNDEFINED   8457875000                       # Cumulative time (in ticks) in various power states
system.tsunami.fake_pnp_read2.pwrStateResidencyTicks::UNDEFINED   8457875000                       # Cumulative time (in ticks) in various power states
system.tsunami.fake_pnp_read3.pwrStateResidencyTicks::UNDEFINED   8457875000                       # Cumulative time (in ticks) in various power states
system.tsunami.fake_pnp_read4.pwrStateResidencyTicks::UNDEFINED   8457875000                       # Cumulative time (in ticks) in various power states
system.tsunami.fake_pnp_read5.pwrStateResidencyTicks::UNDEFINED   8457875000                       # Cumulative time (in ticks) in various power states
system.tsunami.fake_pnp_read6.pwrStateResidencyTicks::UNDEFINED   8457875000                       # Cumulative time (in ticks) in various power states
system.tsunami.fake_pnp_read7.pwrStateResidencyTicks::UNDEFINED   8457875000                       # Cumulative time (in ticks) in various power states
system.tsunami.fake_pnp_write.pwrStateResidencyTicks::UNDEFINED   8457875000                       # Cumulative time (in ticks) in various power states
system.tsunami.fake_ppc.pwrStateResidencyTicks::UNDEFINED   8457875000                       # Cumulative time (in ticks) in various power states
system.tsunami.fake_sm_chip.pwrStateResidencyTicks::UNDEFINED   8457875000                       # Cumulative time (in ticks) in various power states
system.tsunami.fake_uart1.pwrStateResidencyTicks::UNDEFINED   8457875000                       # Cumulative time (in ticks) in various power states
system.tsunami.fake_uart2.pwrStateResidencyTicks::UNDEFINED   8457875000                       # Cumulative time (in ticks) in various power states
system.tsunami.fake_uart3.pwrStateResidencyTicks::UNDEFINED   8457875000                       # Cumulative time (in ticks) in various power states
system.tsunami.fake_uart4.pwrStateResidencyTicks::UNDEFINED   8457875000                       # Cumulative time (in ticks) in various power states
system.tsunami.fb.pwrStateResidencyTicks::UNDEFINED   8457875000                       # Cumulative time (in ticks) in various power states
system.tsunami.ide.pwrStateResidencyTicks::UNDEFINED   8457875000                       # Cumulative time (in ticks) in various power states
system.tsunami.io.pwrStateResidencyTicks::UNDEFINED   8457875000                       # Cumulative time (in ticks) in various power states
system.tsunami.uart.pwrStateResidencyTicks::UNDEFINED   8457875000                       # Cumulative time (in ticks) in various power states

---------- End Simulation Statistics   ----------
