
---------- Begin Simulation Statistics ----------
sim_seconds                                  2.461130                       # Number of seconds simulated
sim_ticks                                2461129858500                       # Number of ticks simulated
final_tick                               2461129858500                       # Number of ticks from beginning of simulation (restored from checkpoints and never reset)
sim_freq                                 1000000000000                       # Frequency of simulated ticks
host_inst_rate                                 237055                       # Simulator instruction rate (inst/s)
host_op_rate                                   237055                       # Simulator op (including micro ops) rate (op/s)
host_tick_rate                             5198687805                       # Simulator tick rate (ticks/s)
host_mem_usage                                 750700                       # Number of bytes of host memory used
host_seconds                                   473.41                       # Real time elapsed on the host
sim_insts                                   112224957                       # Number of instructions simulated
sim_ops                                     112224957                       # Number of ops (including micro ops) simulated
system.voltage_domain.voltage                       1                       # Voltage in Volts
system.clk_domain.clock                          1000                       # Clock period in ticks
system.mem_ctrls.pwrStateResidencyTicks::UNDEFINED 2461129858500                       # Cumulative time (in ticks) in various power states
system.mem_ctrls.bytes_read::cpu0.inst         742240                       # Number of bytes read from this memory
system.mem_ctrls.bytes_read::cpu0.data       21454560                       # Number of bytes read from this memory
system.mem_ctrls.bytes_read::cpu1.inst          16736                       # Number of bytes read from this memory
system.mem_ctrls.bytes_read::cpu1.data         332992                       # Number of bytes read from this memory
system.mem_ctrls.bytes_read::cpu2.inst         659744                       # Number of bytes read from this memory
system.mem_ctrls.bytes_read::cpu2.data        3498048                       # Number of bytes read from this memory
system.mem_ctrls.bytes_read::cpu3.inst         257632                       # Number of bytes read from this memory
system.mem_ctrls.bytes_read::cpu3.data        1130080                       # Number of bytes read from this memory
system.mem_ctrls.bytes_read::tsunami.ide         4032                       # Number of bytes read from this memory
system.mem_ctrls.bytes_read::total           28096064                       # Number of bytes read from this memory
system.mem_ctrls.bytes_inst_read::cpu0.inst       742240                       # Number of instructions bytes read from this memory
system.mem_ctrls.bytes_inst_read::cpu1.inst        16736                       # Number of instructions bytes read from this memory
system.mem_ctrls.bytes_inst_read::cpu2.inst       659744                       # Number of instructions bytes read from this memory
system.mem_ctrls.bytes_inst_read::cpu3.inst       257632                       # Number of instructions bytes read from this memory
system.mem_ctrls.bytes_inst_read::total       1676352                       # Number of instructions bytes read from this memory
system.mem_ctrls.bytes_written::writebacks     21459136                       # Number of bytes written to this memory
system.mem_ctrls.bytes_written::total        21459136                       # Number of bytes written to this memory
system.mem_ctrls.num_reads::cpu0.inst           23195                       # Number of read requests responded to by this memory
system.mem_ctrls.num_reads::cpu0.data          670455                       # Number of read requests responded to by this memory
system.mem_ctrls.num_reads::cpu1.inst             523                       # Number of read requests responded to by this memory
system.mem_ctrls.num_reads::cpu1.data           10406                       # Number of read requests responded to by this memory
system.mem_ctrls.num_reads::cpu2.inst           20617                       # Number of read requests responded to by this memory
system.mem_ctrls.num_reads::cpu2.data          109314                       # Number of read requests responded to by this memory
system.mem_ctrls.num_reads::cpu3.inst            8051                       # Number of read requests responded to by this memory
system.mem_ctrls.num_reads::cpu3.data           35315                       # Number of read requests responded to by this memory
system.mem_ctrls.num_reads::tsunami.ide           126                       # Number of read requests responded to by this memory
system.mem_ctrls.num_reads::total              878002                       # Number of read requests responded to by this memory
system.mem_ctrls.num_writes::writebacks        670598                       # Number of write requests responded to by this memory
system.mem_ctrls.num_writes::total             670598                       # Number of write requests responded to by this memory
system.mem_ctrls.bw_read::cpu0.inst            301585                       # Total read bandwidth from this memory (bytes/s)
system.mem_ctrls.bw_read::cpu0.data           8717362                       # Total read bandwidth from this memory (bytes/s)
system.mem_ctrls.bw_read::cpu1.inst              6800                       # Total read bandwidth from this memory (bytes/s)
system.mem_ctrls.bw_read::cpu1.data            135300                       # Total read bandwidth from this memory (bytes/s)
system.mem_ctrls.bw_read::cpu2.inst            268065                       # Total read bandwidth from this memory (bytes/s)
system.mem_ctrls.bw_read::cpu2.data           1421318                       # Total read bandwidth from this memory (bytes/s)
system.mem_ctrls.bw_read::cpu3.inst            104680                       # Total read bandwidth from this memory (bytes/s)
system.mem_ctrls.bw_read::cpu3.data            459171                       # Total read bandwidth from this memory (bytes/s)
system.mem_ctrls.bw_read::tsunami.ide            1638                       # Total read bandwidth from this memory (bytes/s)
system.mem_ctrls.bw_read::total              11415921                       # Total read bandwidth from this memory (bytes/s)
system.mem_ctrls.bw_inst_read::cpu0.inst       301585                       # Instruction read bandwidth from this memory (bytes/s)
system.mem_ctrls.bw_inst_read::cpu1.inst         6800                       # Instruction read bandwidth from this memory (bytes/s)
system.mem_ctrls.bw_inst_read::cpu2.inst       268065                       # Instruction read bandwidth from this memory (bytes/s)
system.mem_ctrls.bw_inst_read::cpu3.inst       104680                       # Instruction read bandwidth from this memory (bytes/s)
system.mem_ctrls.bw_inst_read::total           681131                       # Instruction read bandwidth from this memory (bytes/s)
system.mem_ctrls.bw_write::writebacks         8719221                       # Write bandwidth from this memory (bytes/s)
system.mem_ctrls.bw_write::total              8719221                       # Write bandwidth from this memory (bytes/s)
system.mem_ctrls.bw_total::writebacks         8719221                       # Total bandwidth to/from this memory (bytes/s)
system.mem_ctrls.bw_total::cpu0.inst           301585                       # Total bandwidth to/from this memory (bytes/s)
system.mem_ctrls.bw_total::cpu0.data          8717362                       # Total bandwidth to/from this memory (bytes/s)
system.mem_ctrls.bw_total::cpu1.inst             6800                       # Total bandwidth to/from this memory (bytes/s)
system.mem_ctrls.bw_total::cpu1.data           135300                       # Total bandwidth to/from this memory (bytes/s)
system.mem_ctrls.bw_total::cpu2.inst           268065                       # Total bandwidth to/from this memory (bytes/s)
system.mem_ctrls.bw_total::cpu2.data          1421318                       # Total bandwidth to/from this memory (bytes/s)
system.mem_ctrls.bw_total::cpu3.inst           104680                       # Total bandwidth to/from this memory (bytes/s)
system.mem_ctrls.bw_total::cpu3.data           459171                       # Total bandwidth to/from this memory (bytes/s)
system.mem_ctrls.bw_total::tsunami.ide           1638                       # Total bandwidth to/from this memory (bytes/s)
system.mem_ctrls.bw_total::total             20135142                       # Total bandwidth to/from this memory (bytes/s)
system.mem_ctrls.readReqs                      878002                       # Number of read requests accepted
system.mem_ctrls.writeReqs                     670598                       # Number of write requests accepted
system.mem_ctrls.readBursts                    878002                       # Number of DRAM read bursts, including those serviced by the write queue
system.mem_ctrls.writeBursts                   670598                       # Number of DRAM write bursts, including those merged in the write queue
system.mem_ctrls.bytesReadDRAM               56176448                       # Total number of bytes read from DRAM
system.mem_ctrls.bytesReadWrQ                   15680                       # Total number of bytes read from write queue
system.mem_ctrls.bytesWritten                30659136                       # Total number of bytes written to DRAM
system.mem_ctrls.bytesReadSys                28096064                       # Total read bytes from the system interface side
system.mem_ctrls.bytesWrittenSys             21459136                       # Total written bytes from the system interface side
system.mem_ctrls.servicedByWrQ                    245                       # Number of DRAM read bursts serviced by the write queue
system.mem_ctrls.mergedWrBursts                191523                       # Number of DRAM write bursts merged with an existing one
system.mem_ctrls.neitherReadNorWriteReqs            0                       # Number of requests that are neither read nor write
system.mem_ctrls.perBankRdBursts::0             51953                       # Per bank write bursts
system.mem_ctrls.perBankRdBursts::1             56436                       # Per bank write bursts
system.mem_ctrls.perBankRdBursts::2             52947                       # Per bank write bursts
system.mem_ctrls.perBankRdBursts::3             54329                       # Per bank write bursts
system.mem_ctrls.perBankRdBursts::4             59922                       # Per bank write bursts
system.mem_ctrls.perBankRdBursts::5             57767                       # Per bank write bursts
system.mem_ctrls.perBankRdBursts::6             60365                       # Per bank write bursts
system.mem_ctrls.perBankRdBursts::7             56638                       # Per bank write bursts
system.mem_ctrls.perBankRdBursts::8             50464                       # Per bank write bursts
system.mem_ctrls.perBankRdBursts::9             53924                       # Per bank write bursts
system.mem_ctrls.perBankRdBursts::10            50541                       # Per bank write bursts
system.mem_ctrls.perBankRdBursts::11            54348                       # Per bank write bursts
system.mem_ctrls.perBankRdBursts::12            54852                       # Per bank write bursts
system.mem_ctrls.perBankRdBursts::13            50911                       # Per bank write bursts
system.mem_ctrls.perBankRdBursts::14            52814                       # Per bank write bursts
system.mem_ctrls.perBankRdBursts::15            59546                       # Per bank write bursts
system.mem_ctrls.perBankWrBursts::0             29963                       # Per bank write bursts
system.mem_ctrls.perBankWrBursts::1             32032                       # Per bank write bursts
system.mem_ctrls.perBankWrBursts::2             29960                       # Per bank write bursts
system.mem_ctrls.perBankWrBursts::3             32241                       # Per bank write bursts
system.mem_ctrls.perBankWrBursts::4             30682                       # Per bank write bursts
system.mem_ctrls.perBankWrBursts::5             30909                       # Per bank write bursts
system.mem_ctrls.perBankWrBursts::6             30506                       # Per bank write bursts
system.mem_ctrls.perBankWrBursts::7             31635                       # Per bank write bursts
system.mem_ctrls.perBankWrBursts::8             25914                       # Per bank write bursts
system.mem_ctrls.perBankWrBursts::9             28739                       # Per bank write bursts
system.mem_ctrls.perBankWrBursts::10            27090                       # Per bank write bursts
system.mem_ctrls.perBankWrBursts::11            29986                       # Per bank write bursts
system.mem_ctrls.perBankWrBursts::12            27956                       # Per bank write bursts
system.mem_ctrls.perBankWrBursts::13            28493                       # Per bank write bursts
system.mem_ctrls.perBankWrBursts::14            29652                       # Per bank write bursts
system.mem_ctrls.perBankWrBursts::15            33291                       # Per bank write bursts
system.mem_ctrls.numRdRetry                         0                       # Number of times read queue was full causing retry
system.mem_ctrls.numWrRetry                        75                       # Number of times write queue was full causing retry
system.mem_ctrls.totGap                  2461128272500                       # Total gap between requests
system.mem_ctrls.readPktSize::0                     0                       # Read request sizes (log2)
system.mem_ctrls.readPktSize::1                     0                       # Read request sizes (log2)
system.mem_ctrls.readPktSize::2                     0                       # Read request sizes (log2)
system.mem_ctrls.readPktSize::3                     0                       # Read request sizes (log2)
system.mem_ctrls.readPktSize::4                     0                       # Read request sizes (log2)
system.mem_ctrls.readPktSize::5                878002                       # Read request sizes (log2)
system.mem_ctrls.readPktSize::6                     0                       # Read request sizes (log2)
system.mem_ctrls.writePktSize::0                    0                       # Write request sizes (log2)
system.mem_ctrls.writePktSize::1                    0                       # Write request sizes (log2)
system.mem_ctrls.writePktSize::2                    0                       # Write request sizes (log2)
system.mem_ctrls.writePktSize::3                    0                       # Write request sizes (log2)
system.mem_ctrls.writePktSize::4                    0                       # Write request sizes (log2)
system.mem_ctrls.writePktSize::5               670598                       # Write request sizes (log2)
system.mem_ctrls.writePktSize::6                    0                       # Write request sizes (log2)
system.mem_ctrls.rdQLenPdf::0                  875614                       # What read queue length does an incoming req see
system.mem_ctrls.rdQLenPdf::1                    1905                       # What read queue length does an incoming req see
system.mem_ctrls.rdQLenPdf::2                     110                       # What read queue length does an incoming req see
system.mem_ctrls.rdQLenPdf::3                       9                       # What read queue length does an incoming req see
system.mem_ctrls.rdQLenPdf::4                       6                       # What read queue length does an incoming req see
system.mem_ctrls.rdQLenPdf::5                      10                       # What read queue length does an incoming req see
system.mem_ctrls.rdQLenPdf::6                      14                       # What read queue length does an incoming req see
system.mem_ctrls.rdQLenPdf::7                       9                       # What read queue length does an incoming req see
system.mem_ctrls.rdQLenPdf::8                      15                       # What read queue length does an incoming req see
system.mem_ctrls.rdQLenPdf::9                      23                       # What read queue length does an incoming req see
system.mem_ctrls.rdQLenPdf::10                      8                       # What read queue length does an incoming req see
system.mem_ctrls.rdQLenPdf::11                      5                       # What read queue length does an incoming req see
system.mem_ctrls.rdQLenPdf::12                      4                       # What read queue length does an incoming req see
system.mem_ctrls.rdQLenPdf::13                      5                       # What read queue length does an incoming req see
system.mem_ctrls.rdQLenPdf::14                      5                       # What read queue length does an incoming req see
system.mem_ctrls.rdQLenPdf::15                      5                       # What read queue length does an incoming req see
system.mem_ctrls.rdQLenPdf::16                      2                       # What read queue length does an incoming req see
system.mem_ctrls.rdQLenPdf::17                      2                       # What read queue length does an incoming req see
system.mem_ctrls.rdQLenPdf::18                      3                       # What read queue length does an incoming req see
system.mem_ctrls.rdQLenPdf::19                      2                       # What read queue length does an incoming req see
system.mem_ctrls.rdQLenPdf::20                      1                       # What read queue length does an incoming req see
system.mem_ctrls.rdQLenPdf::21                      0                       # What read queue length does an incoming req see
system.mem_ctrls.rdQLenPdf::22                      0                       # What read queue length does an incoming req see
system.mem_ctrls.rdQLenPdf::23                      0                       # What read queue length does an incoming req see
system.mem_ctrls.rdQLenPdf::24                      0                       # What read queue length does an incoming req see
system.mem_ctrls.rdQLenPdf::25                      0                       # What read queue length does an incoming req see
system.mem_ctrls.rdQLenPdf::26                      0                       # What read queue length does an incoming req see
system.mem_ctrls.rdQLenPdf::27                      0                       # What read queue length does an incoming req see
system.mem_ctrls.rdQLenPdf::28                      0                       # What read queue length does an incoming req see
system.mem_ctrls.rdQLenPdf::29                      0                       # What read queue length does an incoming req see
system.mem_ctrls.rdQLenPdf::30                      0                       # What read queue length does an incoming req see
system.mem_ctrls.rdQLenPdf::31                      0                       # What read queue length does an incoming req see
system.mem_ctrls.wrQLenPdf::0                       1                       # What write queue length does an incoming req see
system.mem_ctrls.wrQLenPdf::1                       1                       # What write queue length does an incoming req see
system.mem_ctrls.wrQLenPdf::2                       1                       # What write queue length does an incoming req see
system.mem_ctrls.wrQLenPdf::3                       1                       # What write queue length does an incoming req see
system.mem_ctrls.wrQLenPdf::4                       1                       # What write queue length does an incoming req see
system.mem_ctrls.wrQLenPdf::5                       1                       # What write queue length does an incoming req see
system.mem_ctrls.wrQLenPdf::6                       1                       # What write queue length does an incoming req see
system.mem_ctrls.wrQLenPdf::7                       1                       # What write queue length does an incoming req see
system.mem_ctrls.wrQLenPdf::8                       1                       # What write queue length does an incoming req see
system.mem_ctrls.wrQLenPdf::9                       1                       # What write queue length does an incoming req see
system.mem_ctrls.wrQLenPdf::10                      1                       # What write queue length does an incoming req see
system.mem_ctrls.wrQLenPdf::11                      1                       # What write queue length does an incoming req see
system.mem_ctrls.wrQLenPdf::12                      1                       # What write queue length does an incoming req see
system.mem_ctrls.wrQLenPdf::13                      1                       # What write queue length does an incoming req see
system.mem_ctrls.wrQLenPdf::14                      1                       # What write queue length does an incoming req see
system.mem_ctrls.wrQLenPdf::15                   5674                       # What write queue length does an incoming req see
system.mem_ctrls.wrQLenPdf::16                   6874                       # What write queue length does an incoming req see
system.mem_ctrls.wrQLenPdf::17                  28753                       # What write queue length does an incoming req see
system.mem_ctrls.wrQLenPdf::18                  28475                       # What write queue length does an incoming req see
system.mem_ctrls.wrQLenPdf::19                  28275                       # What write queue length does an incoming req see
system.mem_ctrls.wrQLenPdf::20                  28708                       # What write queue length does an incoming req see
system.mem_ctrls.wrQLenPdf::21                  28800                       # What write queue length does an incoming req see
system.mem_ctrls.wrQLenPdf::22                  28964                       # What write queue length does an incoming req see
system.mem_ctrls.wrQLenPdf::23                  30220                       # What write queue length does an incoming req see
system.mem_ctrls.wrQLenPdf::24                  29064                       # What write queue length does an incoming req see
system.mem_ctrls.wrQLenPdf::25                  29066                       # What write queue length does an incoming req see
system.mem_ctrls.wrQLenPdf::26                  30004                       # What write queue length does an incoming req see
system.mem_ctrls.wrQLenPdf::27                  28816                       # What write queue length does an incoming req see
system.mem_ctrls.wrQLenPdf::28                  28873                       # What write queue length does an incoming req see
system.mem_ctrls.wrQLenPdf::29                  28740                       # What write queue length does an incoming req see
system.mem_ctrls.wrQLenPdf::30                  28581                       # What write queue length does an incoming req see
system.mem_ctrls.wrQLenPdf::31                  28115                       # What write queue length does an incoming req see
system.mem_ctrls.wrQLenPdf::32                  28067                       # What write queue length does an incoming req see
system.mem_ctrls.wrQLenPdf::33                    381                       # What write queue length does an incoming req see
system.mem_ctrls.wrQLenPdf::34                    316                       # What write queue length does an incoming req see
system.mem_ctrls.wrQLenPdf::35                    272                       # What write queue length does an incoming req see
system.mem_ctrls.wrQLenPdf::36                    256                       # What write queue length does an incoming req see
system.mem_ctrls.wrQLenPdf::37                    231                       # What write queue length does an incoming req see
system.mem_ctrls.wrQLenPdf::38                    281                       # What write queue length does an incoming req see
system.mem_ctrls.wrQLenPdf::39                    239                       # What write queue length does an incoming req see
system.mem_ctrls.wrQLenPdf::40                    243                       # What write queue length does an incoming req see
system.mem_ctrls.wrQLenPdf::41                    241                       # What write queue length does an incoming req see
system.mem_ctrls.wrQLenPdf::42                    198                       # What write queue length does an incoming req see
system.mem_ctrls.wrQLenPdf::43                    175                       # What write queue length does an incoming req see
system.mem_ctrls.wrQLenPdf::44                    192                       # What write queue length does an incoming req see
system.mem_ctrls.wrQLenPdf::45                    162                       # What write queue length does an incoming req see
system.mem_ctrls.wrQLenPdf::46                    130                       # What write queue length does an incoming req see
system.mem_ctrls.wrQLenPdf::47                    164                       # What write queue length does an incoming req see
system.mem_ctrls.wrQLenPdf::48                    113                       # What write queue length does an incoming req see
system.mem_ctrls.wrQLenPdf::49                    104                       # What write queue length does an incoming req see
system.mem_ctrls.wrQLenPdf::50                    108                       # What write queue length does an incoming req see
system.mem_ctrls.wrQLenPdf::51                    102                       # What write queue length does an incoming req see
system.mem_ctrls.wrQLenPdf::52                    122                       # What write queue length does an incoming req see
system.mem_ctrls.wrQLenPdf::53                     96                       # What write queue length does an incoming req see
system.mem_ctrls.wrQLenPdf::54                     69                       # What write queue length does an incoming req see
system.mem_ctrls.wrQLenPdf::55                     76                       # What write queue length does an incoming req see
system.mem_ctrls.wrQLenPdf::56                     56                       # What write queue length does an incoming req see
system.mem_ctrls.wrQLenPdf::57                     55                       # What write queue length does an incoming req see
system.mem_ctrls.wrQLenPdf::58                     86                       # What write queue length does an incoming req see
system.mem_ctrls.wrQLenPdf::59                    114                       # What write queue length does an incoming req see
system.mem_ctrls.wrQLenPdf::60                    152                       # What write queue length does an incoming req see
system.mem_ctrls.wrQLenPdf::61                     82                       # What write queue length does an incoming req see
system.mem_ctrls.wrQLenPdf::62                     77                       # What write queue length does an incoming req see
system.mem_ctrls.wrQLenPdf::63                     98                       # What write queue length does an incoming req see
system.mem_ctrls.bytesPerActivate::samples       235374                       # Bytes accessed per row activation
system.mem_ctrls.bytesPerActivate::mean    368.925710                       # Bytes accessed per row activation
system.mem_ctrls.bytesPerActivate::gmean   209.520409                       # Bytes accessed per row activation
system.mem_ctrls.bytesPerActivate::stdev   371.415997                       # Bytes accessed per row activation
system.mem_ctrls.bytesPerActivate::0-127        81138     34.47%     34.47% # Bytes accessed per row activation
system.mem_ctrls.bytesPerActivate::128-255        51501     21.88%     56.35% # Bytes accessed per row activation
system.mem_ctrls.bytesPerActivate::256-383        20493      8.71%     65.06% # Bytes accessed per row activation
system.mem_ctrls.bytesPerActivate::384-511        12878      5.47%     70.53% # Bytes accessed per row activation
system.mem_ctrls.bytesPerActivate::512-639         8230      3.50%     74.03% # Bytes accessed per row activation
system.mem_ctrls.bytesPerActivate::640-767         6561      2.79%     76.81% # Bytes accessed per row activation
system.mem_ctrls.bytesPerActivate::768-895         5891      2.50%     79.32% # Bytes accessed per row activation
system.mem_ctrls.bytesPerActivate::896-1023         5949      2.53%     81.84% # Bytes accessed per row activation
system.mem_ctrls.bytesPerActivate::1024-1151        42733     18.16%    100.00% # Bytes accessed per row activation
system.mem_ctrls.bytesPerActivate::total       235374                       # Bytes accessed per row activation
system.mem_ctrls.rdPerTurnAround::samples        27815                       # Reads before turning the bus around for writes
system.mem_ctrls.rdPerTurnAround::mean      31.556139                       # Reads before turning the bus around for writes
system.mem_ctrls.rdPerTurnAround::stdev    479.712818                       # Reads before turning the bus around for writes
system.mem_ctrls.rdPerTurnAround::0-2047        27811     99.99%     99.99% # Reads before turning the bus around for writes
system.mem_ctrls.rdPerTurnAround::2048-4095            1      0.00%     99.99% # Reads before turning the bus around for writes
system.mem_ctrls.rdPerTurnAround::18432-20479            1      0.00%     99.99% # Reads before turning the bus around for writes
system.mem_ctrls.rdPerTurnAround::47104-49151            1      0.00%    100.00% # Reads before turning the bus around for writes
system.mem_ctrls.rdPerTurnAround::59392-61439            1      0.00%    100.00% # Reads before turning the bus around for writes
system.mem_ctrls.rdPerTurnAround::total         27815                       # Reads before turning the bus around for writes
system.mem_ctrls.wrPerTurnAround::samples        27815                       # Writes before turning the bus around for reads
system.mem_ctrls.wrPerTurnAround::mean      17.222686                       # Writes before turning the bus around for reads
system.mem_ctrls.wrPerTurnAround::gmean     16.872479                       # Writes before turning the bus around for reads
system.mem_ctrls.wrPerTurnAround::stdev      5.230478                       # Writes before turning the bus around for reads
system.mem_ctrls.wrPerTurnAround::16-19         26596     95.62%     95.62% # Writes before turning the bus around for reads
system.mem_ctrls.wrPerTurnAround::20-23            73      0.26%     95.88% # Writes before turning the bus around for reads
system.mem_ctrls.wrPerTurnAround::24-27           405      1.46%     97.34% # Writes before turning the bus around for reads
system.mem_ctrls.wrPerTurnAround::28-31            65      0.23%     97.57% # Writes before turning the bus around for reads
system.mem_ctrls.wrPerTurnAround::32-35           251      0.90%     98.47% # Writes before turning the bus around for reads
system.mem_ctrls.wrPerTurnAround::36-39            82      0.29%     98.77% # Writes before turning the bus around for reads
system.mem_ctrls.wrPerTurnAround::40-43           201      0.72%     99.49% # Writes before turning the bus around for reads
system.mem_ctrls.wrPerTurnAround::44-47            21      0.08%     99.56% # Writes before turning the bus around for reads
system.mem_ctrls.wrPerTurnAround::48-51             7      0.03%     99.59% # Writes before turning the bus around for reads
system.mem_ctrls.wrPerTurnAround::52-55            18      0.06%     99.65% # Writes before turning the bus around for reads
system.mem_ctrls.wrPerTurnAround::56-59             7      0.03%     99.68% # Writes before turning the bus around for reads
system.mem_ctrls.wrPerTurnAround::60-63             6      0.02%     99.70% # Writes before turning the bus around for reads
system.mem_ctrls.wrPerTurnAround::64-67             5      0.02%     99.72% # Writes before turning the bus around for reads
system.mem_ctrls.wrPerTurnAround::68-71            12      0.04%     99.76% # Writes before turning the bus around for reads
system.mem_ctrls.wrPerTurnAround::72-75            11      0.04%     99.80% # Writes before turning the bus around for reads
system.mem_ctrls.wrPerTurnAround::76-79             8      0.03%     99.83% # Writes before turning the bus around for reads
system.mem_ctrls.wrPerTurnAround::80-83            11      0.04%     99.87% # Writes before turning the bus around for reads
system.mem_ctrls.wrPerTurnAround::84-87             1      0.00%     99.87% # Writes before turning the bus around for reads
system.mem_ctrls.wrPerTurnAround::88-91            10      0.04%     99.91% # Writes before turning the bus around for reads
system.mem_ctrls.wrPerTurnAround::92-95            11      0.04%     99.95% # Writes before turning the bus around for reads
system.mem_ctrls.wrPerTurnAround::96-99             5      0.02%     99.97% # Writes before turning the bus around for reads
system.mem_ctrls.wrPerTurnAround::100-103            3      0.01%     99.98% # Writes before turning the bus around for reads
system.mem_ctrls.wrPerTurnAround::108-111            1      0.00%     99.98% # Writes before turning the bus around for reads
system.mem_ctrls.wrPerTurnAround::112-115            1      0.00%     99.99% # Writes before turning the bus around for reads
system.mem_ctrls.wrPerTurnAround::124-127            1      0.00%     99.99% # Writes before turning the bus around for reads
system.mem_ctrls.wrPerTurnAround::128-131            3      0.01%    100.00% # Writes before turning the bus around for reads
system.mem_ctrls.wrPerTurnAround::total         27815                       # Writes before turning the bus around for reads
system.mem_ctrls.totQLat                  15786087249                       # Total ticks spent queuing
system.mem_ctrls.totMemAccLat             32244030999                       # Total ticks spent from burst creation until serviced by the DRAM
system.mem_ctrls.totBusLat                 4388785000                       # Total ticks spent in databus transfers
system.mem_ctrls.avgQLat                     17984.58                       # Average queueing delay per DRAM burst
system.mem_ctrls.avgBusLat                    5000.00                       # Average bus latency per DRAM burst
system.mem_ctrls.avgMemAccLat                36734.58                       # Average memory access latency per DRAM burst
system.mem_ctrls.avgRdBW                        22.83                       # Average DRAM read bandwidth in MiByte/s
system.mem_ctrls.avgWrBW                        12.46                       # Average achieved write bandwidth in MiByte/s
system.mem_ctrls.avgRdBWSys                     11.42                       # Average system read bandwidth in MiByte/s
system.mem_ctrls.avgWrBWSys                      8.72                       # Average system write bandwidth in MiByte/s
system.mem_ctrls.peakBW                      12800.00                       # Theoretical peak bandwidth in MiByte/s
system.mem_ctrls.busUtil                         0.28                       # Data bus utilization in percentage
system.mem_ctrls.busUtilRead                     0.18                       # Data bus utilization in percentage for reads
system.mem_ctrls.busUtilWrite                    0.10                       # Data bus utilization in percentage for writes
system.mem_ctrls.avgRdQLen                       1.04                       # Average read queue length when enqueuing
system.mem_ctrls.avgWrQLen                      25.22                       # Average write queue length when enqueuing
system.mem_ctrls.readRowHits                   762839                       # Number of row buffer hits during reads
system.mem_ctrls.writeRowHits                  358592                       # Number of row buffer hits during writes
system.mem_ctrls.readRowHitRate                 86.91                       # Row buffer hit rate for reads
system.mem_ctrls.writeRowHitRate                74.85                       # Row buffer hit rate for writes
system.mem_ctrls.avgGap                    1589260.15                       # Average gap between requests
system.mem_ctrls.pageHitRate                    82.65                       # Row buffer hit rate, read and write combined
system.mem_ctrls_0.actEnergy                861476700                       # Energy for activate commands per rank (pJ)
system.mem_ctrls_0.preEnergy                457881930                       # Energy for precharge commands per rank (pJ)
system.mem_ctrls_0.readEnergy              3215548980                       # Energy for read commands per rank (pJ)
system.mem_ctrls_0.writeEnergy             1294184160                       # Energy for write commands per rank (pJ)
system.mem_ctrls_0.refreshEnergy         15698520240.000002                       # Energy for refresh commands per rank (pJ)
system.mem_ctrls_0.actBackEnergy          18270129060                       # Energy for active background per rank (pJ)
system.mem_ctrls_0.preBackEnergy            999727680                       # Energy for precharge background per rank (pJ)
system.mem_ctrls_0.actPowerDownEnergy     35396948130                       # Energy for active power-down per rank (pJ)
system.mem_ctrls_0.prePowerDownEnergy     18591897600                       # Energy for precharge power-down per rank (pJ)
system.mem_ctrls_0.selfRefreshEnergy     552476784120                       # Energy for self refresh per rank (pJ)
system.mem_ctrls_0.totalEnergy           647269008900                       # Total energy per rank (pJ)
system.mem_ctrls_0.averagePower            262.996691                       # Core power per rank (mW)
system.mem_ctrls_0.totalIdleTime         2418445754499                       # Total Idle time Per DRAM Rank
system.mem_ctrls_0.memoryStateTime::IDLE   1601636750                       # Time in different power states
system.mem_ctrls_0.memoryStateTime::REF    6666814000                       # Time in different power states
system.mem_ctrls_0.memoryStateTime::SREF 2292405879250                       # Time in different power states
system.mem_ctrls_0.memoryStateTime::PRE_PDN  48416515000                       # Time in different power states
system.mem_ctrls_0.memoryStateTime::ACT   34414038251                       # Time in different power states
system.mem_ctrls_0.memoryStateTime::ACT_PDN  77624975249                       # Time in different power states
system.mem_ctrls_1.actEnergy                819100800                       # Energy for activate commands per rank (pJ)
system.mem_ctrls_1.preEnergy                435362400                       # Energy for precharge commands per rank (pJ)
system.mem_ctrls_1.readEnergy              3051636000                       # Energy for read commands per rank (pJ)
system.mem_ctrls_1.writeEnergy             1206451620                       # Energy for write commands per rank (pJ)
system.mem_ctrls_1.refreshEnergy         15919176000.000002                       # Energy for refresh commands per rank (pJ)
system.mem_ctrls_1.actBackEnergy          18379078290                       # Energy for active background per rank (pJ)
system.mem_ctrls_1.preBackEnergy            997606080                       # Energy for precharge background per rank (pJ)
system.mem_ctrls_1.actPowerDownEnergy     35407012050                       # Energy for active power-down per rank (pJ)
system.mem_ctrls_1.prePowerDownEnergy     19493943360                       # Energy for precharge power-down per rank (pJ)
system.mem_ctrls_1.selfRefreshEnergy     551866051260                       # Energy for self refresh per rank (pJ)
system.mem_ctrls_1.totalEnergy           647582197980                       # Total energy per rank (pJ)
system.mem_ctrls_1.averagePower            263.123945                       # Core power per rank (mW)
system.mem_ctrls_1.totalIdleTime         2418210058493                       # Total Idle time Per DRAM Rank
system.mem_ctrls_1.memoryStateTime::IDLE   1625951500                       # Time in different power states
system.mem_ctrls_1.memoryStateTime::REF    6760208000                       # Time in different power states
system.mem_ctrls_1.memoryStateTime::SREF 2289799354000                       # Time in different power states
system.mem_ctrls_1.memoryStateTime::PRE_PDN  50765401000                       # Time in different power states
system.mem_ctrls_1.memoryStateTime::ACT   34532244757                       # Time in different power states
system.mem_ctrls_1.memoryStateTime::ACT_PDN  77646699243                       # Time in different power states
system.pwrStateResidencyTicks::UNDEFINED 2461129858500                       # Cumulative time (in ticks) in various power states
system.bridge.pwrStateResidencyTicks::UNDEFINED 2461129858500                       # Cumulative time (in ticks) in various power states
system.cpu_voltage_domain.voltage                   1                       # Voltage in Volts
system.cpu_clk_domain.clock                       500                       # Clock period in ticks
system.cpu0.dtb.fetch_hits                          0                       # ITB hits
system.cpu0.dtb.fetch_misses                        0                       # ITB misses
system.cpu0.dtb.fetch_acv                           0                       # ITB acv
system.cpu0.dtb.fetch_accesses                      0                       # ITB accesses
system.cpu0.dtb.read_hits                    11575829                       # DTB read hits
system.cpu0.dtb.read_misses                      2643                       # DTB read misses
system.cpu0.dtb.read_acv                            0                       # DTB read access violations
system.cpu0.dtb.read_accesses                  208897                       # DTB read accesses
system.cpu0.dtb.write_hits                    5674225                       # DTB write hits
system.cpu0.dtb.write_misses                      389                       # DTB write misses
system.cpu0.dtb.write_acv                          34                       # DTB write access violations
system.cpu0.dtb.write_accesses                  91736                       # DTB write accesses
system.cpu0.dtb.data_hits                    17250054                       # DTB hits
system.cpu0.dtb.data_misses                      3032                       # DTB misses
system.cpu0.dtb.data_acv                           34                       # DTB access violations
system.cpu0.dtb.data_accesses                  300633                       # DTB accesses
system.cpu0.itb.fetch_hits                    2375763                       # ITB hits
system.cpu0.itb.fetch_misses                     1106                       # ITB misses
system.cpu0.itb.fetch_acv                           0                       # ITB acv
system.cpu0.itb.fetch_accesses                2376869                       # ITB accesses
system.cpu0.itb.read_hits                           0                       # DTB read hits
system.cpu0.itb.read_misses                         0                       # DTB read misses
system.cpu0.itb.read_acv                            0                       # DTB read access violations
system.cpu0.itb.read_accesses                       0                       # DTB read accesses
system.cpu0.itb.write_hits                          0                       # DTB write hits
system.cpu0.itb.write_misses                        0                       # DTB write misses
system.cpu0.itb.write_acv                           0                       # DTB write access violations
system.cpu0.itb.write_accesses                      0                       # DTB write accesses
system.cpu0.itb.data_hits                           0                       # DTB hits
system.cpu0.itb.data_misses                         0                       # DTB misses
system.cpu0.itb.data_acv                            0                       # DTB access violations
system.cpu0.itb.data_accesses                       0                       # DTB accesses
system.cpu0.numPwrStateTransitions              14120                       # Number of power state transitions
system.cpu0.pwrStateClkGateDist::samples         7060                       # Distribution of time spent in the clock gated state
system.cpu0.pwrStateClkGateDist::mean    321475984.844193                       # Distribution of time spent in the clock gated state
system.cpu0.pwrStateClkGateDist::stdev   450326804.541458                       # Distribution of time spent in the clock gated state
system.cpu0.pwrStateClkGateDist::1000-5e+10         7060    100.00%    100.00% # Distribution of time spent in the clock gated state
system.cpu0.pwrStateClkGateDist::min_value        33000                       # Distribution of time spent in the clock gated state
system.cpu0.pwrStateClkGateDist::max_value   2000000000                       # Distribution of time spent in the clock gated state
system.cpu0.pwrStateClkGateDist::total           7060                       # Distribution of time spent in the clock gated state
system.cpu0.pwrStateResidencyTicks::ON   191509405500                       # Cumulative time (in ticks) in various power states
system.cpu0.pwrStateResidencyTicks::CLK_GATED 2269620453000                       # Cumulative time (in ticks) in various power states
system.cpu0.numCycles                      4922259717                       # number of cpu cycles simulated
system.cpu0.numWorkItemsStarted                     0                       # number of work items this cpu started
system.cpu0.numWorkItemsCompleted                   0                       # number of work items this cpu completed
system.cpu0.kern.inst.arm                           0                       # number of arm instructions executed
system.cpu0.kern.inst.quiesce                    7060                       # number of quiesce instructions executed
system.cpu0.kern.callpal::cserve                    1      0.00%      0.00% # number of callpals executed
system.cpu0.kern.callpal::wripir                 1062      0.83%      0.83% # number of callpals executed
system.cpu0.kern.callpal::wrmces                    1      0.00%      0.83% # number of callpals executed
system.cpu0.kern.callpal::wrfen                     1      0.00%      0.83% # number of callpals executed
system.cpu0.kern.callpal::wrvptptr                  1      0.00%      0.83% # number of callpals executed
system.cpu0.kern.callpal::swpctx                 2040      1.59%      2.43% # number of callpals executed
system.cpu0.kern.callpal::tbi                       9      0.01%      2.43% # number of callpals executed
system.cpu0.kern.callpal::wrent                     7      0.01%      2.44% # number of callpals executed
system.cpu0.kern.callpal::swpipl               115635     90.32%     92.75% # number of callpals executed
system.cpu0.kern.callpal::rdps                   5232      4.09%     96.84% # number of callpals executed
system.cpu0.kern.callpal::wrkgp                     1      0.00%     96.84% # number of callpals executed
system.cpu0.kern.callpal::wrusp                     4      0.00%     96.85% # number of callpals executed
system.cpu0.kern.callpal::rdusp                     4      0.00%     96.85% # number of callpals executed
system.cpu0.kern.callpal::whami                     2      0.00%     96.85% # number of callpals executed
system.cpu0.kern.callpal::rti                    3858      3.01%     99.86% # number of callpals executed
system.cpu0.kern.callpal::callsys                 131      0.10%     99.97% # number of callpals executed
system.cpu0.kern.callpal::imb                      44      0.03%    100.00% # number of callpals executed
system.cpu0.kern.callpal::total                128033                       # number of callpals executed
system.cpu0.kern.inst.hwrei                    135454                       # number of hwrei instructions executed
system.cpu0.kern.mode_switch::kernel             5769                       # number of protection mode switches
system.cpu0.kern.mode_switch::user                472                       # number of protection mode switches
system.cpu0.kern.mode_switch::idle                  0                       # number of protection mode switches
system.cpu0.kern.mode_good::kernel                471                      
system.cpu0.kern.mode_good::user                  472                      
system.cpu0.kern.mode_good::idle                    0                      
system.cpu0.kern.mode_switch_good::kernel     0.081643                       # fraction of useful protection mode switches
system.cpu0.kern.mode_switch_good::user             1                       # fraction of useful protection mode switches
system.cpu0.kern.mode_switch_good::idle           nan                       # fraction of useful protection mode switches
system.cpu0.kern.mode_switch_good::total     0.151098                       # fraction of useful protection mode switches
system.cpu0.kern.mode_ticks::kernel      2458623117500     99.90%     99.90% # number of ticks spent at the given mode
system.cpu0.kern.mode_ticks::user          2505687000      0.10%    100.00% # number of ticks spent at the given mode
system.cpu0.kern.mode_ticks::idle                   0      0.00%    100.00% # number of ticks spent at the given mode
system.cpu0.kern.swap_context                    2041                       # number of times the context was actually changed
system.cpu0.kern.ipl_count::0                   46915     38.22%     38.22% # number of times we switched to this ipl
system.cpu0.kern.ipl_count::21                     11      0.01%     38.23% # number of times we switched to this ipl
system.cpu0.kern.ipl_count::22                   2480      2.02%     40.25% # number of times we switched to this ipl
system.cpu0.kern.ipl_count::30                    756      0.62%     40.87% # number of times we switched to this ipl
system.cpu0.kern.ipl_count::31                  72579     59.13%    100.00% # number of times we switched to this ipl
system.cpu0.kern.ipl_count::total              122741                       # number of times we switched to this ipl
system.cpu0.kern.ipl_good::0                    46763     48.70%     48.70% # number of times we switched to this ipl from a different ipl
system.cpu0.kern.ipl_good::21                      11      0.01%     48.71% # number of times we switched to this ipl from a different ipl
system.cpu0.kern.ipl_good::22                    2480      2.58%     51.30% # number of times we switched to this ipl from a different ipl
system.cpu0.kern.ipl_good::30                     756      0.79%     52.08% # number of times we switched to this ipl from a different ipl
system.cpu0.kern.ipl_good::31                   46007     47.92%    100.00% # number of times we switched to this ipl from a different ipl
system.cpu0.kern.ipl_good::total                96017                       # number of times we switched to this ipl from a different ipl
system.cpu0.kern.ipl_ticks::0            2387071882000     96.99%     96.99% # number of cycles we spent at this ipl
system.cpu0.kern.ipl_ticks::21                9645500      0.00%     96.99% # number of cycles we spent at this ipl
system.cpu0.kern.ipl_ticks::22             1319292500      0.05%     97.04% # number of cycles we spent at this ipl
system.cpu0.kern.ipl_ticks::30              816866000      0.03%     97.08% # number of cycles we spent at this ipl
system.cpu0.kern.ipl_ticks::31            71911120500      2.92%    100.00% # number of cycles we spent at this ipl
system.cpu0.kern.ipl_ticks::total        2461128806500                       # number of cycles we spent at this ipl
system.cpu0.kern.ipl_used::0                 0.996760                       # fraction of swpipl calls that actually changed the ipl
system.cpu0.kern.ipl_used::21                       1                       # fraction of swpipl calls that actually changed the ipl
system.cpu0.kern.ipl_used::22                       1                       # fraction of swpipl calls that actually changed the ipl
system.cpu0.kern.ipl_used::30                       1                       # fraction of swpipl calls that actually changed the ipl
system.cpu0.kern.ipl_used::31                0.633889                       # fraction of swpipl calls that actually changed the ipl
system.cpu0.kern.ipl_used::total             0.782273                       # fraction of swpipl calls that actually changed the ipl
system.cpu0.committedInsts                   68097034                       # Number of instructions committed
system.cpu0.committedOps                     68097034                       # Number of ops (including micro ops) committed
system.cpu0.num_int_alu_accesses             65794982                       # Number of integer alu accesses
system.cpu0.num_fp_alu_accesses                228304                       # Number of float alu accesses
system.cpu0.num_vec_alu_accesses                    0                       # Number of vector alu accesses
system.cpu0.num_func_calls                    2220950                       # number of times a function call or return occured
system.cpu0.num_conditional_control_insts      9067299                       # number of instructions that are conditional controls
system.cpu0.num_int_insts                    65794982                       # number of integer instructions
system.cpu0.num_fp_insts                       228304                       # number of float instructions
system.cpu0.num_vec_insts                           0                       # number of vector instructions
system.cpu0.num_int_register_reads           89374890                       # number of times the integer registers were read
system.cpu0.num_int_register_writes          50128120                       # number of times the integer registers were written
system.cpu0.num_fp_register_reads               77002                       # number of times the floating registers were read
system.cpu0.num_fp_register_writes              78466                       # number of times the floating registers were written
system.cpu0.num_vec_register_reads                  0                       # number of times the vector registers were read
system.cpu0.num_vec_register_writes                 0                       # number of times the vector registers were written
system.cpu0.num_mem_refs                     17274996                       # number of memory refs
system.cpu0.num_load_insts                   11589928                       # Number of load instructions
system.cpu0.num_store_insts                   5685068                       # Number of store instructions
system.cpu0.num_idle_cycles              4539240905.998156                       # Number of idle cycles
system.cpu0.num_busy_cycles              383018811.001844                       # Number of busy cycles
system.cpu0.not_idle_fraction                0.077814                       # Percentage of non-idle cycles
system.cpu0.idle_fraction                    0.922186                       # Percentage of idle cycles
system.cpu0.Branches                         11701349                       # Number of branches fetched
system.cpu0.op_class::No_OpClass              1396609      2.05%      2.05% # Class of executed instruction
system.cpu0.op_class::IntAlu                 48263159     70.87%     72.92% # Class of executed instruction
system.cpu0.op_class::IntMult                  151472      0.22%     73.14% # Class of executed instruction
system.cpu0.op_class::IntDiv                        0      0.00%     73.14% # Class of executed instruction
system.cpu0.op_class::FloatAdd                  93756      0.14%     73.28% # Class of executed instruction
system.cpu0.op_class::FloatCmp                      0      0.00%     73.28% # Class of executed instruction
system.cpu0.op_class::FloatCvt                      0      0.00%     73.28% # Class of executed instruction
system.cpu0.op_class::FloatMult                     0      0.00%     73.28% # Class of executed instruction
system.cpu0.op_class::FloatMultAcc                  0      0.00%     73.28% # Class of executed instruction
system.cpu0.op_class::FloatDiv                   1738      0.00%     73.28% # Class of executed instruction
system.cpu0.op_class::FloatMisc                     0      0.00%     73.28% # Class of executed instruction
system.cpu0.op_class::FloatSqrt                     0      0.00%     73.28% # Class of executed instruction
system.cpu0.op_class::SimdAdd                       0      0.00%     73.28% # Class of executed instruction
system.cpu0.op_class::SimdAddAcc                    0      0.00%     73.28% # Class of executed instruction
system.cpu0.op_class::SimdAlu                       0      0.00%     73.28% # Class of executed instruction
system.cpu0.op_class::SimdCmp                       0      0.00%     73.28% # Class of executed instruction
system.cpu0.op_class::SimdCvt                       0      0.00%     73.28% # Class of executed instruction
system.cpu0.op_class::SimdMisc                      0      0.00%     73.28% # Class of executed instruction
system.cpu0.op_class::SimdMult                      0      0.00%     73.28% # Class of executed instruction
system.cpu0.op_class::SimdMultAcc                   0      0.00%     73.28% # Class of executed instruction
system.cpu0.op_class::SimdShift                     0      0.00%     73.28% # Class of executed instruction
system.cpu0.op_class::SimdShiftAcc                  0      0.00%     73.28% # Class of executed instruction
system.cpu0.op_class::SimdSqrt                      0      0.00%     73.28% # Class of executed instruction
system.cpu0.op_class::SimdFloatAdd                  0      0.00%     73.28% # Class of executed instruction
system.cpu0.op_class::SimdFloatAlu                  0      0.00%     73.28% # Class of executed instruction
system.cpu0.op_class::SimdFloatCmp                  0      0.00%     73.28% # Class of executed instruction
system.cpu0.op_class::SimdFloatCvt                  0      0.00%     73.28% # Class of executed instruction
system.cpu0.op_class::SimdFloatDiv                  0      0.00%     73.28% # Class of executed instruction
system.cpu0.op_class::SimdFloatMisc                 0      0.00%     73.28% # Class of executed instruction
system.cpu0.op_class::SimdFloatMult                 0      0.00%     73.28% # Class of executed instruction
system.cpu0.op_class::SimdFloatMultAcc              0      0.00%     73.28% # Class of executed instruction
system.cpu0.op_class::SimdFloatSqrt                 0      0.00%     73.28% # Class of executed instruction
system.cpu0.op_class::MemRead                11841695     17.39%     90.67% # Class of executed instruction
system.cpu0.op_class::MemWrite                5637403      8.28%     98.95% # Class of executed instruction
system.cpu0.op_class::FloatMemRead              68008      0.10%     99.05% # Class of executed instruction
system.cpu0.op_class::FloatMemWrite             64802      0.10%     99.15% # Class of executed instruction
system.cpu0.op_class::IprAccess                581458      0.85%    100.00% # Class of executed instruction
system.cpu0.op_class::InstPrefetch                  0      0.00%    100.00% # Class of executed instruction
system.cpu0.op_class::total                  68100100                       # Class of executed instruction
system.cpu0.dcache.tags.pwrStateResidencyTicks::UNDEFINED 2461129858500                       # Cumulative time (in ticks) in various power states
system.cpu0.dcache.tags.replacements          2308584                       # number of replacements
system.cpu0.dcache.tags.tagsinuse         1015.929666                       # Cycle average of tags in use
system.cpu0.dcache.tags.total_refs           14885197                       # Total number of references to valid blocks.
system.cpu0.dcache.tags.sampled_refs          2308584                       # Sample count of references to valid blocks.
system.cpu0.dcache.tags.avg_refs             6.447761                       # Average number of references to valid blocks.
system.cpu0.dcache.tags.warmup_cycle        168203500                       # Cycle when the warmup percentage was hit.
system.cpu0.dcache.tags.occ_blocks::cpu0.data  1015.929666                       # Average occupied blocks per requestor
system.cpu0.dcache.tags.occ_percent::cpu0.data     0.992119                       # Average percentage of cache occupancy
system.cpu0.dcache.tags.occ_percent::total     0.992119                       # Average percentage of cache occupancy
system.cpu0.dcache.tags.occ_task_id_blocks::1024         1024                       # Occupied blocks per task id
system.cpu0.dcache.tags.age_task_id_blocks_1024::0          117                       # Occupied blocks per task id
system.cpu0.dcache.tags.age_task_id_blocks_1024::1          785                       # Occupied blocks per task id
system.cpu0.dcache.tags.age_task_id_blocks_1024::2          114                       # Occupied blocks per task id
system.cpu0.dcache.tags.age_task_id_blocks_1024::3            7                       # Occupied blocks per task id
system.cpu0.dcache.tags.age_task_id_blocks_1024::4            1                       # Occupied blocks per task id
system.cpu0.dcache.tags.occ_task_id_percent::1024            1                       # Percentage of cache occupancy per task id
system.cpu0.dcache.tags.tag_accesses        554444388                       # Number of tag accesses
system.cpu0.dcache.tags.data_accesses       554444388                       # Number of data accesses
system.cpu0.dcache.pwrStateResidencyTicks::UNDEFINED 2461129858500                       # Cumulative time (in ticks) in various power states
system.cpu0.dcache.ReadReq_hits::cpu0.data      9588207                       # number of ReadReq hits
system.cpu0.dcache.ReadReq_hits::total        9588207                       # number of ReadReq hits
system.cpu0.dcache.WriteReq_hits::cpu0.data      4855851                       # number of WriteReq hits
system.cpu0.dcache.WriteReq_hits::total       4855851                       # number of WriteReq hits
system.cpu0.dcache.LoadLockedReq_hits::cpu0.data       209875                       # number of LoadLockedReq hits
system.cpu0.dcache.LoadLockedReq_hits::total       209875                       # number of LoadLockedReq hits
system.cpu0.dcache.StoreCondReq_hits::cpu0.data       212881                       # number of StoreCondReq hits
system.cpu0.dcache.StoreCondReq_hits::total       212881                       # number of StoreCondReq hits
system.cpu0.dcache.demand_hits::cpu0.data     14444058                       # number of demand (read+write) hits
system.cpu0.dcache.demand_hits::total        14444058                       # number of demand (read+write) hits
system.cpu0.dcache.overall_hits::cpu0.data     14444058                       # number of overall hits
system.cpu0.dcache.overall_hits::total       14444058                       # number of overall hits
system.cpu0.dcache.ReadReq_misses::cpu0.data      1768903                       # number of ReadReq misses
system.cpu0.dcache.ReadReq_misses::total      1768903                       # number of ReadReq misses
system.cpu0.dcache.WriteReq_misses::cpu0.data       590432                       # number of WriteReq misses
system.cpu0.dcache.WriteReq_misses::total       590432                       # number of WriteReq misses
system.cpu0.dcache.LoadLockedReq_misses::cpu0.data        15082                       # number of LoadLockedReq misses
system.cpu0.dcache.LoadLockedReq_misses::total        15082                       # number of LoadLockedReq misses
system.cpu0.dcache.StoreCondReq_misses::cpu0.data        11778                       # number of StoreCondReq misses
system.cpu0.dcache.StoreCondReq_misses::total        11778                       # number of StoreCondReq misses
system.cpu0.dcache.demand_misses::cpu0.data      2359335                       # number of demand (read+write) misses
system.cpu0.dcache.demand_misses::total       2359335                       # number of demand (read+write) misses
system.cpu0.dcache.overall_misses::cpu0.data      2359335                       # number of overall misses
system.cpu0.dcache.overall_misses::total      2359335                       # number of overall misses
system.cpu0.dcache.ReadReq_miss_latency::cpu0.data  42594342000                       # number of ReadReq miss cycles
system.cpu0.dcache.ReadReq_miss_latency::total  42594342000                       # number of ReadReq miss cycles
system.cpu0.dcache.WriteReq_miss_latency::cpu0.data  37799497000                       # number of WriteReq miss cycles
system.cpu0.dcache.WriteReq_miss_latency::total  37799497000                       # number of WriteReq miss cycles
system.cpu0.dcache.LoadLockedReq_miss_latency::cpu0.data    153094500                       # number of LoadLockedReq miss cycles
system.cpu0.dcache.LoadLockedReq_miss_latency::total    153094500                       # number of LoadLockedReq miss cycles
system.cpu0.dcache.StoreCondReq_miss_latency::cpu0.data     61159000                       # number of StoreCondReq miss cycles
system.cpu0.dcache.StoreCondReq_miss_latency::total     61159000                       # number of StoreCondReq miss cycles
system.cpu0.dcache.demand_miss_latency::cpu0.data  80393839000                       # number of demand (read+write) miss cycles
system.cpu0.dcache.demand_miss_latency::total  80393839000                       # number of demand (read+write) miss cycles
system.cpu0.dcache.overall_miss_latency::cpu0.data  80393839000                       # number of overall miss cycles
system.cpu0.dcache.overall_miss_latency::total  80393839000                       # number of overall miss cycles
system.cpu0.dcache.ReadReq_accesses::cpu0.data     11357110                       # number of ReadReq accesses(hits+misses)
system.cpu0.dcache.ReadReq_accesses::total     11357110                       # number of ReadReq accesses(hits+misses)
system.cpu0.dcache.WriteReq_accesses::cpu0.data      5446283                       # number of WriteReq accesses(hits+misses)
system.cpu0.dcache.WriteReq_accesses::total      5446283                       # number of WriteReq accesses(hits+misses)
system.cpu0.dcache.LoadLockedReq_accesses::cpu0.data       224957                       # number of LoadLockedReq accesses(hits+misses)
system.cpu0.dcache.LoadLockedReq_accesses::total       224957                       # number of LoadLockedReq accesses(hits+misses)
system.cpu0.dcache.StoreCondReq_accesses::cpu0.data       224659                       # number of StoreCondReq accesses(hits+misses)
system.cpu0.dcache.StoreCondReq_accesses::total       224659                       # number of StoreCondReq accesses(hits+misses)
system.cpu0.dcache.demand_accesses::cpu0.data     16803393                       # number of demand (read+write) accesses
system.cpu0.dcache.demand_accesses::total     16803393                       # number of demand (read+write) accesses
system.cpu0.dcache.overall_accesses::cpu0.data     16803393                       # number of overall (read+write) accesses
system.cpu0.dcache.overall_accesses::total     16803393                       # number of overall (read+write) accesses
system.cpu0.dcache.ReadReq_miss_rate::cpu0.data     0.155753                       # miss rate for ReadReq accesses
system.cpu0.dcache.ReadReq_miss_rate::total     0.155753                       # miss rate for ReadReq accesses
system.cpu0.dcache.WriteReq_miss_rate::cpu0.data     0.108410                       # miss rate for WriteReq accesses
system.cpu0.dcache.WriteReq_miss_rate::total     0.108410                       # miss rate for WriteReq accesses
system.cpu0.dcache.LoadLockedReq_miss_rate::cpu0.data     0.067044                       # miss rate for LoadLockedReq accesses
system.cpu0.dcache.LoadLockedReq_miss_rate::total     0.067044                       # miss rate for LoadLockedReq accesses
system.cpu0.dcache.StoreCondReq_miss_rate::cpu0.data     0.052426                       # miss rate for StoreCondReq accesses
system.cpu0.dcache.StoreCondReq_miss_rate::total     0.052426                       # miss rate for StoreCondReq accesses
system.cpu0.dcache.demand_miss_rate::cpu0.data     0.140408                       # miss rate for demand accesses
system.cpu0.dcache.demand_miss_rate::total     0.140408                       # miss rate for demand accesses
system.cpu0.dcache.overall_miss_rate::cpu0.data     0.140408                       # miss rate for overall accesses
system.cpu0.dcache.overall_miss_rate::total     0.140408                       # miss rate for overall accesses
system.cpu0.dcache.ReadReq_avg_miss_latency::cpu0.data 24079.523863                       # average ReadReq miss latency
system.cpu0.dcache.ReadReq_avg_miss_latency::total 24079.523863                       # average ReadReq miss latency
system.cpu0.dcache.WriteReq_avg_miss_latency::cpu0.data 64020.068357                       # average WriteReq miss latency
system.cpu0.dcache.WriteReq_avg_miss_latency::total 64020.068357                       # average WriteReq miss latency
system.cpu0.dcache.LoadLockedReq_avg_miss_latency::cpu0.data 10150.808911                       # average LoadLockedReq miss latency
system.cpu0.dcache.LoadLockedReq_avg_miss_latency::total 10150.808911                       # average LoadLockedReq miss latency
system.cpu0.dcache.StoreCondReq_avg_miss_latency::cpu0.data  5192.647309                       # average StoreCondReq miss latency
system.cpu0.dcache.StoreCondReq_avg_miss_latency::total  5192.647309                       # average StoreCondReq miss latency
system.cpu0.dcache.demand_avg_miss_latency::cpu0.data 34074.787599                       # average overall miss latency
system.cpu0.dcache.demand_avg_miss_latency::total 34074.787599                       # average overall miss latency
system.cpu0.dcache.overall_avg_miss_latency::cpu0.data 34074.787599                       # average overall miss latency
system.cpu0.dcache.overall_avg_miss_latency::total 34074.787599                       # average overall miss latency
system.cpu0.dcache.blocked_cycles::no_mshrs            0                       # number of cycles access was blocked
system.cpu0.dcache.blocked_cycles::no_targets            0                       # number of cycles access was blocked
system.cpu0.dcache.blocked::no_mshrs                0                       # number of cycles access was blocked
system.cpu0.dcache.blocked::no_targets              0                       # number of cycles access was blocked
system.cpu0.dcache.avg_blocked_cycles::no_mshrs          nan                       # average number of cycles each access was blocked
system.cpu0.dcache.avg_blocked_cycles::no_targets          nan                       # average number of cycles each access was blocked
system.cpu0.dcache.writebacks::writebacks      1943786                       # number of writebacks
system.cpu0.dcache.writebacks::total          1943786                       # number of writebacks
system.cpu0.dcache.ReadReq_mshr_misses::cpu0.data      1768903                       # number of ReadReq MSHR misses
system.cpu0.dcache.ReadReq_mshr_misses::total      1768903                       # number of ReadReq MSHR misses
system.cpu0.dcache.WriteReq_mshr_misses::cpu0.data       590432                       # number of WriteReq MSHR misses
system.cpu0.dcache.WriteReq_mshr_misses::total       590432                       # number of WriteReq MSHR misses
system.cpu0.dcache.LoadLockedReq_mshr_misses::cpu0.data        15082                       # number of LoadLockedReq MSHR misses
system.cpu0.dcache.LoadLockedReq_mshr_misses::total        15082                       # number of LoadLockedReq MSHR misses
system.cpu0.dcache.StoreCondReq_mshr_misses::cpu0.data        11778                       # number of StoreCondReq MSHR misses
system.cpu0.dcache.StoreCondReq_mshr_misses::total        11778                       # number of StoreCondReq MSHR misses
system.cpu0.dcache.demand_mshr_misses::cpu0.data      2359335                       # number of demand (read+write) MSHR misses
system.cpu0.dcache.demand_mshr_misses::total      2359335                       # number of demand (read+write) MSHR misses
system.cpu0.dcache.overall_mshr_misses::cpu0.data      2359335                       # number of overall MSHR misses
system.cpu0.dcache.overall_mshr_misses::total      2359335                       # number of overall MSHR misses
system.cpu0.dcache.ReadReq_mshr_uncacheable::cpu0.data         5218                       # number of ReadReq MSHR uncacheable
system.cpu0.dcache.ReadReq_mshr_uncacheable::total         5218                       # number of ReadReq MSHR uncacheable
system.cpu0.dcache.WriteReq_mshr_uncacheable::cpu0.data         9845                       # number of WriteReq MSHR uncacheable
system.cpu0.dcache.WriteReq_mshr_uncacheable::total         9845                       # number of WriteReq MSHR uncacheable
system.cpu0.dcache.overall_mshr_uncacheable_misses::cpu0.data        15063                       # number of overall MSHR uncacheable misses
system.cpu0.dcache.overall_mshr_uncacheable_misses::total        15063                       # number of overall MSHR uncacheable misses
system.cpu0.dcache.ReadReq_mshr_miss_latency::cpu0.data  40825439000                       # number of ReadReq MSHR miss cycles
system.cpu0.dcache.ReadReq_mshr_miss_latency::total  40825439000                       # number of ReadReq MSHR miss cycles
system.cpu0.dcache.WriteReq_mshr_miss_latency::cpu0.data  37209065000                       # number of WriteReq MSHR miss cycles
system.cpu0.dcache.WriteReq_mshr_miss_latency::total  37209065000                       # number of WriteReq MSHR miss cycles
system.cpu0.dcache.LoadLockedReq_mshr_miss_latency::cpu0.data    138012500                       # number of LoadLockedReq MSHR miss cycles
system.cpu0.dcache.LoadLockedReq_mshr_miss_latency::total    138012500                       # number of LoadLockedReq MSHR miss cycles
system.cpu0.dcache.StoreCondReq_mshr_miss_latency::cpu0.data     49381000                       # number of StoreCondReq MSHR miss cycles
system.cpu0.dcache.StoreCondReq_mshr_miss_latency::total     49381000                       # number of StoreCondReq MSHR miss cycles
system.cpu0.dcache.demand_mshr_miss_latency::cpu0.data  78034504000                       # number of demand (read+write) MSHR miss cycles
system.cpu0.dcache.demand_mshr_miss_latency::total  78034504000                       # number of demand (read+write) MSHR miss cycles
system.cpu0.dcache.overall_mshr_miss_latency::cpu0.data  78034504000                       # number of overall MSHR miss cycles
system.cpu0.dcache.overall_mshr_miss_latency::total  78034504000                       # number of overall MSHR miss cycles
system.cpu0.dcache.ReadReq_mshr_uncacheable_latency::cpu0.data   1188715000                       # number of ReadReq MSHR uncacheable cycles
system.cpu0.dcache.ReadReq_mshr_uncacheable_latency::total   1188715000                       # number of ReadReq MSHR uncacheable cycles
system.cpu0.dcache.overall_mshr_uncacheable_latency::cpu0.data   1188715000                       # number of overall MSHR uncacheable cycles
system.cpu0.dcache.overall_mshr_uncacheable_latency::total   1188715000                       # number of overall MSHR uncacheable cycles
system.cpu0.dcache.ReadReq_mshr_miss_rate::cpu0.data     0.155753                       # mshr miss rate for ReadReq accesses
system.cpu0.dcache.ReadReq_mshr_miss_rate::total     0.155753                       # mshr miss rate for ReadReq accesses
system.cpu0.dcache.WriteReq_mshr_miss_rate::cpu0.data     0.108410                       # mshr miss rate for WriteReq accesses
system.cpu0.dcache.WriteReq_mshr_miss_rate::total     0.108410                       # mshr miss rate for WriteReq accesses
system.cpu0.dcache.LoadLockedReq_mshr_miss_rate::cpu0.data     0.067044                       # mshr miss rate for LoadLockedReq accesses
system.cpu0.dcache.LoadLockedReq_mshr_miss_rate::total     0.067044                       # mshr miss rate for LoadLockedReq accesses
system.cpu0.dcache.StoreCondReq_mshr_miss_rate::cpu0.data     0.052426                       # mshr miss rate for StoreCondReq accesses
system.cpu0.dcache.StoreCondReq_mshr_miss_rate::total     0.052426                       # mshr miss rate for StoreCondReq accesses
system.cpu0.dcache.demand_mshr_miss_rate::cpu0.data     0.140408                       # mshr miss rate for demand accesses
system.cpu0.dcache.demand_mshr_miss_rate::total     0.140408                       # mshr miss rate for demand accesses
system.cpu0.dcache.overall_mshr_miss_rate::cpu0.data     0.140408                       # mshr miss rate for overall accesses
system.cpu0.dcache.overall_mshr_miss_rate::total     0.140408                       # mshr miss rate for overall accesses
system.cpu0.dcache.ReadReq_avg_mshr_miss_latency::cpu0.data 23079.523863                       # average ReadReq mshr miss latency
system.cpu0.dcache.ReadReq_avg_mshr_miss_latency::total 23079.523863                       # average ReadReq mshr miss latency
system.cpu0.dcache.WriteReq_avg_mshr_miss_latency::cpu0.data 63020.068357                       # average WriteReq mshr miss latency
system.cpu0.dcache.WriteReq_avg_mshr_miss_latency::total 63020.068357                       # average WriteReq mshr miss latency
system.cpu0.dcache.LoadLockedReq_avg_mshr_miss_latency::cpu0.data  9150.808911                       # average LoadLockedReq mshr miss latency
system.cpu0.dcache.LoadLockedReq_avg_mshr_miss_latency::total  9150.808911                       # average LoadLockedReq mshr miss latency
system.cpu0.dcache.StoreCondReq_avg_mshr_miss_latency::cpu0.data  4192.647309                       # average StoreCondReq mshr miss latency
system.cpu0.dcache.StoreCondReq_avg_mshr_miss_latency::total  4192.647309                       # average StoreCondReq mshr miss latency
system.cpu0.dcache.demand_avg_mshr_miss_latency::cpu0.data 33074.787599                       # average overall mshr miss latency
system.cpu0.dcache.demand_avg_mshr_miss_latency::total 33074.787599                       # average overall mshr miss latency
system.cpu0.dcache.overall_avg_mshr_miss_latency::cpu0.data 33074.787599                       # average overall mshr miss latency
system.cpu0.dcache.overall_avg_mshr_miss_latency::total 33074.787599                       # average overall mshr miss latency
system.cpu0.dcache.ReadReq_avg_mshr_uncacheable_latency::cpu0.data 227810.463779                       # average ReadReq mshr uncacheable latency
system.cpu0.dcache.ReadReq_avg_mshr_uncacheable_latency::total 227810.463779                       # average ReadReq mshr uncacheable latency
system.cpu0.dcache.overall_avg_mshr_uncacheable_latency::cpu0.data 78916.218549                       # average overall mshr uncacheable latency
system.cpu0.dcache.overall_avg_mshr_uncacheable_latency::total 78916.218549                       # average overall mshr uncacheable latency
[...]
system.membus.pkt_size::total                 1957653                       # Cumulative packet size per connected master and slave (bytes)
system.membus.snoops                             2841                       # Total snoops (count)
system.membus.snoopTraffic                        960                       # Total snoop traffic (bytes)
system.membus.snoop_fanout::samples             50403                       # Request fanout histogram
system.membus.snoop_fanout::mean             0.048747                       # Request fanout histogram
system.membus.snoop_fanout::stdev            0.215341                       # Request fanout histogram
system.membus.snoop_fanout::underflows              0      0.00%      0.00% # Request fanout histogram
system.membus.snoop_fanout::0                   47946     95.13%     95.13% # Request fanout histogram
system.membus.snoop_fanout::1                    2457      4.87%    100.00% # Request fanout histogram
system.membus.snoop_fanout::2                       0      0.00%    100.00% # Request fanout histogram
system.membus.snoop_fanout::overflows               0      0.00%    100.00% # Request fanout histogram
system.membus.snoop_fanout::min_value               0                       # Request fanout histogram
system.membus.snoop_fanout::max_value               1                       # Request fanout histogram
system.membus.snoop_fanout::total               50403                       # Request fanout histogram
system.membus.reqLayer0.occupancy             1812500                       # Layer occupancy (ticks)
system.membus.reqLayer0.utilization               0.0                       # Layer utilization (%)
system.membus.reqLayer1.occupancy           165344368                       # Layer occupancy (ticks)
system.membus.reqLayer1.utilization               2.8                       # Layer utilization (%)
system.membus.respLayer1.occupancy            2144810                       # Layer occupancy (ticks)
system.membus.respLayer1.utilization              0.0                       # Layer utilization (%)
system.membus.respLayer2.occupancy           86462250                       # Layer occupancy (ticks)
system.membus.respLayer2.utilization              1.5                       # Layer utilization (%)
system.membus.badaddr_responder.pwrStateResidencyTicks::UNDEFINED   5806243000                       # Cumulative time (in ticks) in various power states
system.tol2bus.snoop_filter.tot_requests       275720                       # Total number of requests made to the snoop filter.
system.tol2bus.snoop_filter.hit_single_requests       128598                       # Number of requests hitting in the snoop filter with a single holder of the requested data.
system.tol2bus.snoop_filter.hit_multi_requests        28897                       # Number of requests hitting in the snoop filter with multiple (>1) holders of the requested data.
system.tol2bus.snoop_filter.tot_snoops           2170                       # Total number of snoops made to the snoop filter.
system.tol2bus.snoop_filter.hit_single_snoops         1944                       # Number of snoops hitting in the snoop filter with a single holder of the requested data.
system.tol2bus.snoop_filter.hit_multi_snoops          226                       # Number of snoops hitting in the snoop filter with multiple (>1) holders of the requested data.
system.tol2bus.pwrStateResidencyTicks::UNDEFINED   5806243000                       # Cumulative time (in ticks) in various power states
system.tol2bus.trans_dist::ReadReq                589                       # Transaction distribution
system.tol2bus.trans_dist::ReadResp            109481                       # Transaction distribution
system.tol2bus.trans_dist::WriteReq               466                       # Transaction distribution
system.tol2bus.trans_dist::WriteResp              466                       # Transaction distribution
system.tol2bus.trans_dist::WritebackDirty        52028                       # Transaction distribution
system.tol2bus.trans_dist::WritebackClean        82271                       # Transaction distribution
system.tol2bus.trans_dist::CleanEvict           26787                       # Transaction distribution
system.tol2bus.trans_dist::UpgradeReq             699                       # Transaction distribution
system.tol2bus.trans_dist::SCUpgradeReq           240                       # Transaction distribution
system.tol2bus.trans_dist::UpgradeResp            939                       # Transaction distribution
system.tol2bus.trans_dist::ReadExReq            29659                       # Transaction distribution
system.tol2bus.trans_dist::ReadExResp           29659                       # Transaction distribution
system.tol2bus.trans_dist::ReadCleanReq         82275                       # Transaction distribution
system.tol2bus.trans_dist::ReadSharedReq        26617                       # Transaction distribution
system.tol2bus.trans_dist::InvalidateReq         2427                       # Transaction distribution
system.tol2bus.trans_dist::InvalidateResp           18                       # Transaction distribution
system.tol2bus.pkt_count_system.cpu0.icache.mem_side::system.l2.cpu_side        69856                       # Packet count per connected master and slave (bytes)
system.tol2bus.pkt_count_system.cpu0.dcache.mem_side::system.l2.cpu_side        87048                       # Packet count per connected master and slave (bytes)
system.tol2bus.pkt_count_system.cpu1.icache.mem_side::system.l2.cpu_side        18154                       # Packet count per connected master and slave (bytes)
system.tol2bus.pkt_count_system.cpu1.dcache.mem_side::system.l2.cpu_side        12331                       # Packet count per connected master and slave (bytes)
system.tol2bus.pkt_count_system.cpu2.icache.mem_side::system.l2.cpu_side       136643                       # Packet count per connected master and slave (bytes)
system.tol2bus.pkt_count_system.cpu2.dcache.mem_side::system.l2.cpu_side        53710                       # Packet count per connected master and slave (bytes)
system.tol2bus.pkt_count_system.cpu3.icache.mem_side::system.l2.cpu_side        22161                       # Packet count per connected master and slave (bytes)
system.tol2bus.pkt_count_system.cpu3.dcache.mem_side::system.l2.cpu_side        12664                       # Packet count per connected master and slave (bytes)
system.tol2bus.pkt_count::total                412567                       # Packet count per connected master and slave (bytes)
system.tol2bus.pkt_size_system.cpu0.icache.mem_side::system.l2.cpu_side      1490208                       # Cumulative packet size per connected master and slave (bytes)
system.tol2bus.pkt_size_system.cpu0.dcache.mem_side::system.l2.cpu_side      1561956                       # Cumulative packet size per connected master and slave (bytes)
system.tol2bus.pkt_size_system.cpu1.icache.mem_side::system.l2.cpu_side       387264                       # Cumulative packet size per connected master and slave (bytes)
system.tol2bus.pkt_size_system.cpu1.dcache.mem_side::system.l2.cpu_side       207740                       # Cumulative packet size per connected master and slave (bytes)
system.tol2bus.pkt_size_system.cpu2.icache.mem_side::system.l2.cpu_side      2915008                       # Cumulative packet size per connected master and slave (bytes)
system.tol2bus.pkt_size_system.cpu2.dcache.mem_side::system.l2.cpu_side       954313                       # Cumulative packet size per connected master and slave (bytes)
system.tol2bus.pkt_size_system.cpu3.icache.mem_side::system.l2.cpu_side       472768                       # Cumulative packet size per connected master and slave (bytes)
system.tol2bus.pkt_size_system.cpu3.dcache.mem_side::system.l2.cpu_side       209484                       # Cumulative packet size per connected master and slave (bytes)
system.tol2bus.pkt_size::total                8198741                       # Cumulative packet size per connected master and slave (bytes)
system.tol2bus.snoops                           32102                       # Total snoops (count)
system.tol2bus.snoopTraffic                    535296                       # Total snoop traffic (bytes)
system.tol2bus.snoop_fanout::samples           167798                       # Request fanout histogram
system.tol2bus.snoop_fanout::mean            0.227160                       # Request fanout histogram
system.tol2bus.snoop_fanout::stdev           0.642503                       # Request fanout histogram
system.tol2bus.snoop_fanout::underflows             0      0.00%      0.00% # Request fanout histogram
system.tol2bus.snoop_fanout::0                 144424     86.07%     86.07% # Request fanout histogram
system.tol2bus.snoop_fanout::1                  13771      8.21%     94.28% # Request fanout histogram
system.tol2bus.snoop_fanout::2                   4484      2.67%     96.95% # Request fanout histogram
system.tol2bus.snoop_fanout::3                   5099      3.04%     99.99% # Request fanout histogram
system.tol2bus.snoop_fanout::4                     19      0.01%    100.00% # Request fanout histogram
system.tol2bus.snoop_fanout::5                      1      0.00%    100.00% # Request fanout histogram
system.tol2bus.snoop_fanout::6                      0      0.00%    100.00% # Request fanout histogram
system.tol2bus.snoop_fanout::7                      0      0.00%    100.00% # Request fanout histogram
system.tol2bus.snoop_fanout::8                      0      0.00%    100.00% # Request fanout histogram
system.tol2bus.snoop_fanout::overflows              0      0.00%    100.00% # Request fanout histogram
system.tol2bus.snoop_fanout::min_value              0                       # Request fanout histogram
system.tol2bus.snoop_fanout::max_value              5                       # Request fanout histogram
system.tol2bus.snoop_fanout::total             167798                       # Request fanout histogram
system.tol2bus.reqLayer0.occupancy          199406500                       # Layer occupancy (ticks)
system.tol2bus.reqLayer0.utilization              3.4                       # Layer utilization (%)
system.tol2bus.snoopLayer0.occupancy            46485                       # Layer occupancy (ticks)
system.tol2bus.snoopLayer0.utilization            0.0                       # Layer utilization (%)
system.tol2bus.respLayer0.occupancy          23302469                       # Layer occupancy (ticks)
system.tol2bus.respLayer0.utilization             0.4                       # Layer utilization (%)
system.tol2bus.respLayer1.occupancy          29777462                       # Layer occupancy (ticks)
system.tol2bus.respLayer1.utilization             0.5                       # Layer utilization (%)
system.tol2bus.respLayer2.occupancy           6067968                       # Layer occupancy (ticks)
system.tol2bus.respLayer2.utilization             0.1                       # Layer utilization (%)
system.tol2bus.respLayer3.occupancy           4450973                       # Layer occupancy (ticks)
system.tol2bus.respLayer3.utilization             0.1                       # Layer utilization (%)
system.tol2bus.respLayer4.occupancy          45565965                       # Layer occupancy (ticks)
system.tol2bus.respLayer4.utilization             0.8                       # Layer utilization (%)
system.tol2bus.respLayer5.occupancy          18691468                       # Layer occupancy (ticks)
system.tol2bus.respLayer5.utilization             0.3                       # Layer utilization (%)
system.tol2bus.respLayer6.occupancy           7397479                       # Layer occupancy (ticks)
system.tol2bus.respLayer6.utilization             0.1                       # Layer utilization (%)
system.tol2bus.respLayer7.occupancy           4683964                       # Layer occupancy (ticks)
system.tol2bus.respLayer7.utilization             0.1                       # Layer utilization (%)
system.tsunami.backdoor.pwrStateResidencyTicks::UNDEFINED   5806243000                       # Cumulative time (in ticks) in various power states
system.tsunami.cchip.pwrStateResidencyTicks::UNDEFINED   5806243000                       # Cumulative time (in ticks) in various power states
system.tsunami.pchip.pwrStateResidencyTicks::UNDEFINED   5806243000                       # Cumulative time (in ticks) in various power states
system.tsunami.ethernet.pwrStateResidencyTicks::UNDEFINED   5806243000                       # Cumulative time (in ticks) in various power states
system.tsunami.ethernet.descDMAReads                0                       # Number of descriptors the device read w/ DMA
system.tsunami.ethernet.descDMAWrites               0                       # Number of descriptors the device wrote w/ DMA
system.tsunami.ethernet.descDmaReadBytes            0                       # number of descriptor bytes read w/ DMA
system.tsunami.ethernet.descDmaWriteBytes            0                       # number of descriptor bytes write w/ DMA
system.tsunami.ethernet.postedSwi                   0                       # number of software interrupts posted to CPU
system.tsunami.ethernet.coalescedSwi              nan                       # average number of Swi's coalesced into each post
system.tsunami.ethernet.totalSwi                    0                       # total number of Swi written to ISR
system.tsunami.ethernet.postedRxIdle                0                       # number of rxIdle interrupts posted to CPU
system.tsunami.ethernet.coalescedRxIdle           nan                       # average number of RxIdle's coalesced into each post
system.tsunami.ethernet.totalRxIdle                 0                       # total number of RxIdle written to ISR
system.tsunami.ethernet.postedRxOk                  0                       # number of RxOk interrupts posted to CPU
system.tsunami.ethernet.coalescedRxOk             nan                       # average number of RxOk's coalesced into each post
system.tsunami.ethernet.totalRxOk                   0                       # total number of RxOk written to ISR
system.tsunami.ethernet.postedRxDesc                0                       # number of RxDesc interrupts posted to CPU
system.tsunami.ethernet.coalescedRxDesc           nan                       # average number of RxDesc's coalesced into each post
system.tsunami.ethernet.totalRxDesc                 0                       # total number of RxDesc written to ISR
system.tsunami.ethernet.postedTxOk                  0                       # number of TxOk interrupts posted to CPU
system.tsunami.ethernet.coalescedTxOk             nan                       # average number of TxOk's coalesced into each post
system.tsunami.ethernet.totalTxOk                   0                       # total number of TxOk written to ISR
system.tsunami.ethernet.postedTxIdle                0                       # number of TxIdle interrupts posted to CPU
system.tsunami.ethernet.coalescedTxIdle           nan                       # average number of TxIdle's coalesced into each post
system.tsunami.ethernet.totalTxIdle                 0                       # total number of TxIdle written to ISR
system.tsunami.ethernet.postedTxDesc                0                       # number of TxDesc interrupts posted to CPU
system.tsunami.ethernet.coalescedTxDesc           nan                       # average number of TxDesc's coalesced into each post
system.tsunami.ethernet.totalTxDesc                 0                       # total number of TxDesc written to ISR
system.tsunami.ethernet.postedRxOrn                 0                       # number of RxOrn posted to CPU
system.tsunami.ethernet.coalescedRxOrn            nan                       # average number of RxOrn's coalesced into each post
system.tsunami.ethernet.totalRxOrn                  0                       # total number of RxOrn written to ISR
system.tsunami.ethernet.coalescedTotal            nan                       # average number of interrupts coalesced into each post
system.tsunami.ethernet.postedInterrupts            0                       # number of posts to CPU
system.tsunami.ethernet.droppedPackets              0                       # number of packets dropped
system.tsunami.fake_OROM.pwrStateResidencyTicks::UNDEFINED   5806243000                       # Cumulative time (in ticks) in various power states
system.tsunami.fake_ata0.pwrStateResidencyTicks::UNDEFINED   5806243000                       # Cumulative time (in ticks) in various power states
system.tsunami.fake_ata1.pwrStateResidencyTicks::UNDEFINED   5806243000                       # Cumulative time (in ticks) in various power states
system.tsunami.fake_pnp_addr.pwrStateResidencyTicks::UNDEFINED   5806243000                       # Cumulative time (in ticks) in various power states
system.tsunami.fake_pnp_read0.pwrStateResidencyTicks::UNDEFINED   5806243000                       # Cumulative time (in ticks) in various power states
system.tsunami.fake_pnp_read1.pwrStateResidencyTicks::UNDEFINED   5806243000                       # Cumulative time (in ticks) in various power states
system.tsunami.fake_pnp_read2.pwrStateResidencyTicks::UNDEFINED   5806243000                       # Cumulative time (in ticks) in various power states
system.tsunami.fake_pnp_read3.pwrStateResidencyTicks::UNDEFINED   5806243000                       # Cumulative time (in ticks) in various power states
system.tsunami.fake_pnp_read4.pwrStateResidencyTicks::UNDEFINED   5806243000                       # Cumulative time (in ticks) in various power states
system.tsunami.fake_pnp_read5.pwrStateResidencyTicks::UNDEFINED   5806243000                       # Cumulative time (in ticks) in various power states
system.tsunami.fake_pnp_read6.pwrStateResidencyTicks::UNDEFINED   5806243000                       # Cumulative time (in ticks) in various power states
system.tsunami.fake_pnp_read7.pwrStateResidencyTicks::UNDEFINED   5806243000                       # Cumulative time (in ticks) in various power states
system.tsunami.fake_pnp_write.pwrStateResidencyTicks::UNDEFINED   5806243000                       # Cumulative time (in ticks) in various power states
system.tsunami.fake_ppc.pwrStateResidencyTicks::UNDEFINED   5806243000                       # Cumulative time (in ticks) in various power states
system.tsunami.fake_sm_chip.pwrStateResidencyTicks::UNDEFINED   5806243000                       # Cumulative time (in ticks) in various power states
system.tsunami.fake_uart1.pwrStateResidencyTicks::UNDEFINED   5806243000                       # Cumulative time (in ticks) in various power states
system.tsunami.fake_uart2.pwrStateResidencyTicks::UNDEFINED   5806243000                       # Cumulative time (in ticks) in various power states
system.tsunami.fake_uart3.pwrStateResidencyTicks::UNDEFINED   5806243000                       # Cumulative time (in ticks) in various power states
system.tsunami.fake_uart4.pwrStateResidencyTicks::UNDEFINED   5806243000                       # Cumulative time (in ticks) in various power states
system.tsunami.fb.pwrStateResidencyTicks::UNDEFINED   5806243000                       # Cumulative time (in ticks) in various power states
system.tsunami.ide.pwrStateResidencyTicks::UNDEFINED   5806243000                       # Cumulative time (in ticks) in various power states
system.tsunami.io.pwrStateResidencyTicks::UNDEFINED   5806243000                       # Cumulative time (in ticks) in various power states
system.tsunami.uart.pwrStateResidencyTicks::UNDEFINED   5806243000                       # Cumulative time (in ticks) in various power states

---------- End Simulation Statistics   ----------
