
---------- Begin Simulation Statistics ----------
sim_seconds                                  2.452690                       # Number of seconds simulated
sim_ticks                                2452689530500                       # Number of ticks simulated
final_tick                               2452689530500                       # Number of ticks from beginning of simulation (restored from checkpoints and never reset)
sim_freq                                 1000000000000                       # Frequency of simulated ticks
host_inst_rate                                 212826                       # Simulator instruction rate (inst/s)
host_op_rate                                   212826                       # Simulator op (including micro ops) rate (op/s)
host_tick_rate                             5703853269                       # Simulator tick rate (ticks/s)
host_mem_usage                                 738152                       # Number of bytes of host memory used
host_seconds                                   430.01                       # Real time elapsed on the host
sim_insts                                    91516468                       # Number of instructions simulated
sim_ops                                      91516468                       # Number of ops (including micro ops) simulated
system.voltage_domain.voltage                       1                       # Voltage in Volts
system.clk_domain.clock                          1000                       # Clock period in ticks
system.mem_ctrls.pwrStateResidencyTicks::UNDEFINED 2452689530500                       # Cumulative time (in ticks) in various power states
system.mem_ctrls.bytes_read::cpu.inst         2896576                       # Number of bytes read from this memory
system.mem_ctrls.bytes_read::cpu.data        25262560                       # Number of bytes read from this memory
system.mem_ctrls.bytes_read::tsunami.ide         4032                       # Number of bytes read from this memory
system.mem_ctrls.bytes_read::total           28163168                       # Number of bytes read from this memory
system.mem_ctrls.bytes_inst_read::cpu.inst      2896576                       # Number of instructions bytes read from this memory
system.mem_ctrls.bytes_inst_read::total       2896576                       # Number of instructions bytes read from this memory
system.mem_ctrls.bytes_written::writebacks     19367456                       # Number of bytes written to this memory
system.mem_ctrls.bytes_written::total        19367456                       # Number of bytes written to this memory
system.mem_ctrls.num_reads::cpu.inst            90518                       # Number of read requests responded to by this memory
system.mem_ctrls.num_reads::cpu.data           789455                       # Number of read requests responded to by this memory
system.mem_ctrls.num_reads::tsunami.ide           126                       # Number of read requests responded to by this memory
system.mem_ctrls.num_reads::total              880099                       # Number of read requests responded to by this memory
system.mem_ctrls.num_writes::writebacks        605233                       # Number of write requests responded to by this memory
system.mem_ctrls.num_writes::total             605233                       # Number of write requests responded to by this memory
system.mem_ctrls.bw_read::cpu.inst            1180979                       # Total read bandwidth from this memory (bytes/s)
system.mem_ctrls.bw_read::cpu.data           10299942                       # Total read bandwidth from this memory (bytes/s)
system.mem_ctrls.bw_read::tsunami.ide            1644                       # Total read bandwidth from this memory (bytes/s)
system.mem_ctrls.bw_read::total              11482565                       # Total read bandwidth from this memory (bytes/s)
system.mem_ctrls.bw_inst_read::cpu.inst       1180979                       # Instruction read bandwidth from this memory (bytes/s)
system.mem_ctrls.bw_inst_read::total          1180979                       # Instruction read bandwidth from this memory (bytes/s)
system.mem_ctrls.bw_write::writebacks         7896416                       # Write bandwidth from this memory (bytes/s)
system.mem_ctrls.bw_write::total              7896416                       # Write bandwidth from this memory (bytes/s)
system.mem_ctrls.bw_total::writebacks         7896416                       # Total bandwidth to/from this memory (bytes/s)
system.mem_ctrls.bw_total::cpu.inst           1180979                       # Total bandwidth to/from this memory (bytes/s)
system.mem_ctrls.bw_total::cpu.data          10299942                       # Total bandwidth to/from this memory (bytes/s)
system.mem_ctrls.bw_total::tsunami.ide           1644                       # Total bandwidth to/from this memory (bytes/s)
system.mem_ctrls.bw_total::total             19378981                       # Total bandwidth to/from this memory (bytes/s)
system.mem_ctrls.readReqs                      880099                       # Number of read requests accepted
system.mem_ctrls.writeReqs                     605233                       # Number of write requests accepted
system.mem_ctrls.readBursts                    880099                       # Number of DRAM read bursts, including those serviced by the write queue
system.mem_ctrls.writeBursts                   605233                       # Number of DRAM write bursts, including those merged in the write queue
system.mem_ctrls.bytesReadDRAM               56227840                       # Total number of bytes read from DRAM
system.mem_ctrls.bytesReadWrQ                   98496                       # Total number of bytes read from write queue
system.mem_ctrls.bytesWritten                24323136                       # Total number of bytes written to DRAM
system.mem_ctrls.bytesReadSys                28163168                       # Total read bytes from the system interface side
system.mem_ctrls.bytesWrittenSys             19367456                       # Total written bytes from the system interface side
system.mem_ctrls.servicedByWrQ                   1539                       # Number of DRAM read bursts serviced by the write queue
system.mem_ctrls.mergedWrBursts                225168                       # Number of DRAM write bursts merged with an existing one
system.mem_ctrls.neitherReadNorWriteReqs            0                       # Number of requests that are neither read nor write
system.mem_ctrls.perBankRdBursts::0             77883                       # Per bank write bursts
system.mem_ctrls.perBankRdBursts::1             50096                       # Per bank write bursts
system.mem_ctrls.perBankRdBursts::2             51773                       # Per bank write bursts
system.mem_ctrls.perBankRdBursts::3             47129                       # Per bank write bursts
system.mem_ctrls.perBankRdBursts::4             48869                       # Per bank write bursts
system.mem_ctrls.perBankRdBursts::5             50266                       # Per bank write bursts
system.mem_ctrls.perBankRdBursts::6             48931                       # Per bank write bursts
system.mem_ctrls.perBankRdBursts::7             51677                       # Per bank write bursts
system.mem_ctrls.perBankRdBursts::8             52850                       # Per bank write bursts
system.mem_ctrls.perBankRdBursts::9             50959                       # Per bank write bursts
system.mem_ctrls.perBankRdBursts::10            54460                       # Per bank write bursts
system.mem_ctrls.perBankRdBursts::11            68914                       # Per bank write bursts
system.mem_ctrls.perBankRdBursts::12            58134                       # Per bank write bursts
system.mem_ctrls.perBankRdBursts::13            58043                       # Per bank write bursts
system.mem_ctrls.perBankRdBursts::14            50913                       # Per bank write bursts
system.mem_ctrls.perBankRdBursts::15            57663                       # Per bank write bursts
system.mem_ctrls.perBankWrBursts::0             23769                       # Per bank write bursts
system.mem_ctrls.perBankWrBursts::1             23596                       # Per bank write bursts
system.mem_ctrls.perBankWrBursts::2             22885                       # Per bank write bursts
system.mem_ctrls.perBankWrBursts::3             22928                       # Per bank write bursts
system.mem_ctrls.perBankWrBursts::4             23106                       # Per bank write bursts
system.mem_ctrls.perBankWrBursts::5             23907                       # Per bank write bursts
system.mem_ctrls.perBankWrBursts::6             22565                       # Per bank write bursts
system.mem_ctrls.perBankWrBursts::7             23664                       # Per bank write bursts
system.mem_ctrls.perBankWrBursts::8             22991                       # Per bank write bursts
system.mem_ctrls.perBankWrBursts::9             23312                       # Per bank write bursts
system.mem_ctrls.perBankWrBursts::10            24330                       # Per bank write bursts
system.mem_ctrls.perBankWrBursts::11            27352                       # Per bank write bursts
system.mem_ctrls.perBankWrBursts::12            24371                       # Per bank write bursts
system.mem_ctrls.perBankWrBursts::13            23875                       # Per bank write bursts
system.mem_ctrls.perBankWrBursts::14            23390                       # Per bank write bursts
system.mem_ctrls.perBankWrBursts::15            24008                       # Per bank write bursts
system.mem_ctrls.numRdRetry                         0                       # Number of times read queue was full causing retry
system.mem_ctrls.numWrRetry                        28                       # Number of times write queue was full causing retry
system.mem_ctrls.totGap                  2452689452500                       # Total gap between requests
system.mem_ctrls.readPktSize::0                     0                       # Read request sizes (log2)
system.mem_ctrls.readPktSize::1                     0                       # Read request sizes (log2)
system.mem_ctrls.readPktSize::2                     0                       # Read request sizes (log2)
system.mem_ctrls.readPktSize::3                     0                       # Read request sizes (log2)
system.mem_ctrls.readPktSize::4                     0                       # Read request sizes (log2)
system.mem_ctrls.readPktSize::5                880099                       # Read request sizes (log2)
system.mem_ctrls.readPktSize::6                     0                       # Read request sizes (log2)
system.mem_ctrls.writePktSize::0                    0                       # Write request sizes (log2)
system.mem_ctrls.writePktSize::1                    0                       # Write request sizes (log2)
system.mem_ctrls.writePktSize::2                    0                       # Write request sizes (log2)
system.mem_ctrls.writePktSize::3                    0                       # Write request sizes (log2)
system.mem_ctrls.writePktSize::4                    0                       # Write request sizes (log2)
system.mem_ctrls.writePktSize::5               605233                       # Write request sizes (log2)
system.mem_ctrls.writePktSize::6                    0                       # Write request sizes (log2)
system.mem_ctrls.rdQLenPdf::0                  878430                       # What read queue length does an incoming req see
system.mem_ctrls.rdQLenPdf::1                       4                       # What read queue length does an incoming req see
system.mem_ctrls.rdQLenPdf::2                       4                       # What read queue length does an incoming req see
system.mem_ctrls.rdQLenPdf::3                       4                       # What read queue length does an incoming req see
system.mem_ctrls.rdQLenPdf::4                       6                       # What read queue length does an incoming req see
system.mem_ctrls.rdQLenPdf::5                       8                       # What read queue length does an incoming req see
system.mem_ctrls.rdQLenPdf::6                       8                       # What read queue length does an incoming req see
system.mem_ctrls.rdQLenPdf::7                       9                       # What read queue length does an incoming req see
system.mem_ctrls.rdQLenPdf::8                      16                       # What read queue length does an incoming req see
system.mem_ctrls.rdQLenPdf::9                      24                       # What read queue length does an incoming req see
system.mem_ctrls.rdQLenPdf::10                     10                       # What read queue length does an incoming req see
system.mem_ctrls.rdQLenPdf::11                      4                       # What read queue length does an incoming req see
system.mem_ctrls.rdQLenPdf::12                      4                       # What read queue length does an incoming req see
system.mem_ctrls.rdQLenPdf::13                      3                       # What read queue length does an incoming req see
system.mem_ctrls.rdQLenPdf::14                      3                       # What read queue length does an incoming req see
system.mem_ctrls.rdQLenPdf::15                      4                       # What read queue length does an incoming req see
system.mem_ctrls.rdQLenPdf::16                      5                       # What read queue length does an incoming req see
system.mem_ctrls.rdQLenPdf::17                      5                       # What read queue length does an incoming req see
system.mem_ctrls.rdQLenPdf::18                      5                       # What read queue length does an incoming req see
system.mem_ctrls.rdQLenPdf::19                      2                       # What read queue length does an incoming req see
system.mem_ctrls.rdQLenPdf::20                      2                       # What read queue length does an incoming req see
system.mem_ctrls.rdQLenPdf::21                      0                       # What read queue length does an incoming req see
system.mem_ctrls.rdQLenPdf::22                      0                       # What read queue length does an incoming req see
system.mem_ctrls.rdQLenPdf::23                      0                       # What read queue length does an incoming req see
system.mem_ctrls.rdQLenPdf::24                      0                       # What read queue length does an incoming req see
system.mem_ctrls.rdQLenPdf::25                      0                       # What read queue length does an incoming req see
system.mem_ctrls.rdQLenPdf::26                      0                       # What read queue length does an incoming req see
system.mem_ctrls.rdQLenPdf::27                      0                       # What read queue length does an incoming req see
system.mem_ctrls.rdQLenPdf::28                      0                       # What read queue length does an incoming req see
system.mem_ctrls.rdQLenPdf::29                      0                       # What read queue length does an incoming req see
system.mem_ctrls.rdQLenPdf::30                      0                       # What read queue length does an incoming req see
system.mem_ctrls.rdQLenPdf::31                      0                       # What read queue length does an incoming req see
system.mem_ctrls.wrQLenPdf::0                       1                       # What write queue length does an incoming req see
system.mem_ctrls.wrQLenPdf::1                       1                       # What write queue length does an incoming req see
system.mem_ctrls.wrQLenPdf::2                       1                       # What write queue length does an incoming req see
system.mem_ctrls.wrQLenPdf::3                       1                       # What write queue length does an incoming req see
system.mem_ctrls.wrQLenPdf::4                       1                       # What write queue length does an incoming req see
system.mem_ctrls.wrQLenPdf::5                       1                       # What write queue length does an incoming req see
system.mem_ctrls.wrQLenPdf::6                       1                       # What write queue length does an incoming req see
system.mem_ctrls.wrQLenPdf::7                       1                       # What write queue length does an incoming req see
system.mem_ctrls.wrQLenPdf::8                       1                       # What write queue length does an incoming req see
system.mem_ctrls.wrQLenPdf::9                       1                       # What write queue length does an incoming req see
system.mem_ctrls.wrQLenPdf::10                      1                       # What write queue length does an incoming req see
system.mem_ctrls.wrQLenPdf::11                      1                       # What write queue length does an incoming req see
system.mem_ctrls.wrQLenPdf::12                      1                       # What write queue length does an incoming req see
system.mem_ctrls.wrQLenPdf::13                      1                       # What write queue length does an incoming req see
system.mem_ctrls.wrQLenPdf::14                      1                       # What write queue length does an incoming req see
system.mem_ctrls.wrQLenPdf::15                   4189                       # What write queue length does an incoming req see
system.mem_ctrls.wrQLenPdf::16                   5115                       # What write queue length does an incoming req see
system.mem_ctrls.wrQLenPdf::17                  22637                       # What write queue length does an incoming req see
system.mem_ctrls.wrQLenPdf::18                  22430                       # What write queue length does an incoming req see
system.mem_ctrls.wrQLenPdf::19                  22298                       # What write queue length does an incoming req see
system.mem_ctrls.wrQLenPdf::20                  22645                       # What write queue length does an incoming req see
system.mem_ctrls.wrQLenPdf::21                  22698                       # What write queue length does an incoming req see
system.mem_ctrls.wrQLenPdf::22                  22859                       # What write queue length does an incoming req see
system.mem_ctrls.wrQLenPdf::23                  24007                       # What write queue length does an incoming req see
system.mem_ctrls.wrQLenPdf::24                  23236                       # What write queue length does an incoming req see
system.mem_ctrls.wrQLenPdf::25                  23266                       # What write queue length does an incoming req see
system.mem_ctrls.wrQLenPdf::26                  24064                       # What write queue length does an incoming req see
system.mem_ctrls.wrQLenPdf::27                  23226                       # What write queue length does an incoming req see
system.mem_ctrls.wrQLenPdf::28                  22987                       # What write queue length does an incoming req see
system.mem_ctrls.wrQLenPdf::29                  22915                       # What write queue length does an incoming req see
system.mem_ctrls.wrQLenPdf::30                  22800                       # What write queue length does an incoming req see
system.mem_ctrls.wrQLenPdf::31                  22334                       # What write queue length does an incoming req see
system.mem_ctrls.wrQLenPdf::32                  22236                       # What write queue length does an incoming req see
system.mem_ctrls.wrQLenPdf::33                    360                       # What write queue length does an incoming req see
system.mem_ctrls.wrQLenPdf::34                    356                       # What write queue length does an incoming req see
system.mem_ctrls.wrQLenPdf::35                    308                       # What write queue length does an incoming req see
system.mem_ctrls.wrQLenPdf::36                    298                       # What write queue length does an incoming req see
system.mem_ctrls.wrQLenPdf::37                    217                       # What write queue length does an incoming req see
system.mem_ctrls.wrQLenPdf::38                    252                       # What write queue length does an incoming req see
system.mem_ctrls.wrQLenPdf::39                    215                       # What write queue length does an incoming req see
system.mem_ctrls.wrQLenPdf::40                    185                       # What write queue length does an incoming req see
system.mem_ctrls.wrQLenPdf::41                    192                       # What write queue length does an incoming req see
system.mem_ctrls.wrQLenPdf::42                    160                       # What write queue length does an incoming req see
system.mem_ctrls.wrQLenPdf::43                    172                       # What write queue length does an incoming req see
system.mem_ctrls.wrQLenPdf::44                    174                       # What write queue length does an incoming req see
system.mem_ctrls.wrQLenPdf::45                    143                       # What write queue length does an incoming req see
system.mem_ctrls.wrQLenPdf::46                    115                       # What write queue length does an incoming req see
system.mem_ctrls.wrQLenPdf::47                    110                       # What write queue length does an incoming req see
system.mem_ctrls.wrQLenPdf::48                     87                       # What write queue length does an incoming req see
system.mem_ctrls.wrQLenPdf::49                     72                       # What write queue length does an incoming req see
system.mem_ctrls.wrQLenPdf::50                     61                       # What write queue length does an incoming req see
system.mem_ctrls.wrQLenPdf::51                     62                       # What write queue length does an incoming req see
system.mem_ctrls.wrQLenPdf::52                     55                       # What write queue length does an incoming req see
system.mem_ctrls.wrQLenPdf::53                     44                       # What write queue length does an incoming req see
system.mem_ctrls.wrQLenPdf::54                     59                       # What write queue length does an incoming req see
system.mem_ctrls.wrQLenPdf::55                     40                       # What write queue length does an incoming req see
system.mem_ctrls.wrQLenPdf::56                     39                       # What write queue length does an incoming req see
system.mem_ctrls.wrQLenPdf::57                     37                       # What write queue length does an incoming req see
system.mem_ctrls.wrQLenPdf::58                     52                       # What write queue length does an incoming req see
system.mem_ctrls.wrQLenPdf::59                     66                       # What write queue length does an incoming req see
system.mem_ctrls.wrQLenPdf::60                     78                       # What write queue length does an incoming req see
system.mem_ctrls.wrQLenPdf::61                     32                       # What write queue length does an incoming req see
system.mem_ctrls.wrQLenPdf::62                     35                       # What write queue length does an incoming req see
system.mem_ctrls.wrQLenPdf::63                     32                       # What write queue length does an incoming req see
system.mem_ctrls.bytesPerActivate::samples       187275                       # Bytes accessed per row activation
system.mem_ctrls.bytesPerActivate::mean    430.120326                       # Bytes accessed per row activation
system.mem_ctrls.bytesPerActivate::gmean   247.584691                       # Bytes accessed per row activation
system.mem_ctrls.bytesPerActivate::stdev   395.147752                       # Bytes accessed per row activation
system.mem_ctrls.bytesPerActivate::0-127        56148     29.98%     29.98% # Bytes accessed per row activation
system.mem_ctrls.bytesPerActivate::128-255        37090     19.81%     49.79% # Bytes accessed per row activation
system.mem_ctrls.bytesPerActivate::256-383        15878      8.48%     58.27% # Bytes accessed per row activation
system.mem_ctrls.bytesPerActivate::384-511        10254      5.48%     63.74% # Bytes accessed per row activation
system.mem_ctrls.bytesPerActivate::512-639         7138      3.81%     67.55% # Bytes accessed per row activation
system.mem_ctrls.bytesPerActivate::640-767         5243      2.80%     70.35% # Bytes accessed per row activation
system.mem_ctrls.bytesPerActivate::768-895         5031      2.69%     73.04% # Bytes accessed per row activation
system.mem_ctrls.bytesPerActivate::896-1023         5238      2.80%     75.84% # Bytes accessed per row activation
system.mem_ctrls.bytesPerActivate::1024-1151        45255     24.16%    100.00% # Bytes accessed per row activation
system.mem_ctrls.bytesPerActivate::total       187275                       # Bytes accessed per row activation
system.mem_ctrls.rdPerTurnAround::samples        21993                       # Reads before turning the bus around for writes
system.mem_ctrls.rdPerTurnAround::mean      39.946983                       # Reads before turning the bus around for writes
system.mem_ctrls.rdPerTurnAround::stdev    371.886106                       # Reads before turning the bus around for writes
system.mem_ctrls.rdPerTurnAround::0-2047        21984     99.96%     99.96% # Reads before turning the bus around for writes
system.mem_ctrls.rdPerTurnAround::2048-4095            4      0.02%     99.98% # Reads before turning the bus around for writes
system.mem_ctrls.rdPerTurnAround::4096-6143            1      0.00%     99.98% # Reads before turning the bus around for writes
system.mem_ctrls.rdPerTurnAround::6144-8191            1      0.00%     99.99% # Reads before turning the bus around for writes
system.mem_ctrls.rdPerTurnAround::12288-14335            1      0.00%     99.99% # Reads before turning the bus around for writes
system.mem_ctrls.rdPerTurnAround::30720-32767            1      0.00%    100.00% # Reads before turning the bus around for writes
system.mem_ctrls.rdPerTurnAround::40960-43007            1      0.00%    100.00% # Reads before turning the bus around for writes
system.mem_ctrls.rdPerTurnAround::total         21993                       # Reads before turning the bus around for writes
system.mem_ctrls.wrPerTurnAround::samples        21993                       # Writes before turning the bus around for reads
system.mem_ctrls.wrPerTurnAround::mean      17.280453                       # Writes before turning the bus around for reads
system.mem_ctrls.wrPerTurnAround::gmean     16.915248                       # Writes before turning the bus around for reads
system.mem_ctrls.wrPerTurnAround::stdev      5.153439                       # Writes before turning the bus around for reads
system.mem_ctrls.wrPerTurnAround::16-17         17653     80.27%     80.27% # Writes before turning the bus around for reads
system.mem_ctrls.wrPerTurnAround::18-19          3179     14.45%     94.72% # Writes before turning the bus around for reads
system.mem_ctrls.wrPerTurnAround::20-21            46      0.21%     94.93% # Writes before turning the bus around for reads
system.mem_ctrls.wrPerTurnAround::22-23            39      0.18%     95.11% # Writes before turning the bus around for reads
system.mem_ctrls.wrPerTurnAround::24-25            50      0.23%     95.33% # Writes before turning the bus around for reads
system.mem_ctrls.wrPerTurnAround::26-27           328      1.49%     96.83% # Writes before turning the bus around for reads
system.mem_ctrls.wrPerTurnAround::28-29            64      0.29%     97.12% # Writes before turning the bus around for reads
system.mem_ctrls.wrPerTurnAround::30-31            29      0.13%     97.25% # Writes before turning the bus around for reads
system.mem_ctrls.wrPerTurnAround::32-33           191      0.87%     98.12% # Writes before turning the bus around for reads
system.mem_ctrls.wrPerTurnAround::34-35            39      0.18%     98.29% # Writes before turning the bus around for reads
system.mem_ctrls.wrPerTurnAround::36-37            63      0.29%     98.58% # Writes before turning the bus around for reads
system.mem_ctrls.wrPerTurnAround::38-39            33      0.15%     98.73% # Writes before turning the bus around for reads
system.mem_ctrls.wrPerTurnAround::40-41           146      0.66%     99.40% # Writes before turning the bus around for reads
system.mem_ctrls.wrPerTurnAround::42-43            14      0.06%     99.46% # Writes before turning the bus around for reads
system.mem_ctrls.wrPerTurnAround::44-45             8      0.04%     99.50% # Writes before turning the bus around for reads
system.mem_ctrls.wrPerTurnAround::46-47            19      0.09%     99.58% # Writes before turning the bus around for reads
system.mem_ctrls.wrPerTurnAround::48-49            15      0.07%     99.65% # Writes before turning the bus around for reads
system.mem_ctrls.wrPerTurnAround::50-51             7      0.03%     99.68% # Writes before turning the bus around for reads
system.mem_ctrls.wrPerTurnAround::52-53             2      0.01%     99.69% # Writes before turning the bus around for reads
system.mem_ctrls.wrPerTurnAround::54-55             5      0.02%     99.71% # Writes before turning the bus around for reads
system.mem_ctrls.wrPerTurnAround::58-59             1      0.00%     99.72% # Writes before turning the bus around for reads
system.mem_ctrls.wrPerTurnAround::60-61             6      0.03%     99.75% # Writes before turning the bus around for reads
system.mem_ctrls.wrPerTurnAround::62-63             2      0.01%     99.75% # Writes before turning the bus around for reads
system.mem_ctrls.wrPerTurnAround::64-65             2      0.01%     99.76% # Writes before turning the bus around for reads
system.mem_ctrls.wrPerTurnAround::66-67             3      0.01%     99.78% # Writes before turning the bus around for reads
system.mem_ctrls.wrPerTurnAround::68-69             8      0.04%     99.81% # Writes before turning the bus around for reads
system.mem_ctrls.wrPerTurnAround::70-71             1      0.00%     99.82% # Writes before turning the bus around for reads
system.mem_ctrls.wrPerTurnAround::72-73             1      0.00%     99.82% # Writes before turning the bus around for reads
system.mem_ctrls.wrPerTurnAround::74-75             4      0.02%     99.84% # Writes before turning the bus around for reads
system.mem_ctrls.wrPerTurnAround::80-81             8      0.04%     99.88% # Writes before turning the bus around for reads
system.mem_ctrls.wrPerTurnAround::84-85             1      0.00%     99.88% # Writes before turning the bus around for reads
system.mem_ctrls.wrPerTurnAround::88-89             5      0.02%     99.90% # Writes before turning the bus around for reads
system.mem_ctrls.wrPerTurnAround::90-91             5      0.02%     99.93% # Writes before turning the bus around for reads
system.mem_ctrls.wrPerTurnAround::92-93             3      0.01%     99.94% # Writes before turning the bus around for reads
system.mem_ctrls.wrPerTurnAround::94-95             7      0.03%     99.97% # Writes before turning the bus around for reads
system.mem_ctrls.wrPerTurnAround::96-97             3      0.01%     99.99% # Writes before turning the bus around for reads
system.mem_ctrls.wrPerTurnAround::100-101            1      0.00%     99.99% # Writes before turning the bus around for reads
system.mem_ctrls.wrPerTurnAround::116-117            1      0.00%    100.00% # Writes before turning the bus around for reads
system.mem_ctrls.wrPerTurnAround::126-127            1      0.00%    100.00% # Writes before turning the bus around for reads
system.mem_ctrls.wrPerTurnAround::total         21993                       # Writes before turning the bus around for reads
system.mem_ctrls.totQLat                  15699243593                       # Total ticks spent queuing
system.mem_ctrls.totMemAccLat             32172243593                       # Total ticks spent from burst creation until serviced by the DRAM
system.mem_ctrls.totBusLat                 4392800000                       # Total ticks spent in databus transfers
system.mem_ctrls.avgQLat                     17869.29                       # Average queueing delay per DRAM burst
system.mem_ctrls.avgBusLat                    5000.00                       # Average bus latency per DRAM burst
system.mem_ctrls.avgMemAccLat                36619.29                       # Average memory access latency per DRAM burst
system.mem_ctrls.avgRdBW                        22.92                       # Average DRAM read bandwidth in MiByte/s
system.mem_ctrls.avgWrBW                         9.92                       # Average achieved write bandwidth in MiByte/s
system.mem_ctrls.avgRdBWSys                     11.48                       # Average system read bandwidth in MiByte/s
system.mem_ctrls.avgWrBWSys                      7.90                       # Average system write bandwidth in MiByte/s
system.mem_ctrls.peakBW                      12800.00                       # Theoretical peak bandwidth in MiByte/s
system.mem_ctrls.busUtil                         0.26                       # Data bus utilization in percentage
system.mem_ctrls.busUtilRead                     0.18                       # Data bus utilization in percentage for reads
system.mem_ctrls.busUtilWrite                    0.08                       # Data bus utilization in percentage for writes
system.mem_ctrls.avgRdQLen                       1.00                       # Average read queue length when enqueuing
system.mem_ctrls.avgWrQLen                      24.30                       # Average write queue length when enqueuing
system.mem_ctrls.readRowHits                   747564                       # Number of row buffer hits during reads
system.mem_ctrls.writeRowHits                  323768                       # Number of row buffer hits during writes
system.mem_ctrls.readRowHitRate                 85.09                       # Row buffer hit rate for reads
system.mem_ctrls.writeRowHitRate                85.19                       # Row buffer hit rate for writes
system.mem_ctrls.avgGap                    1651273.56                       # Average gap between requests
system.mem_ctrls.pageHitRate                    85.12                       # Row buffer hit rate, read and write combined
system.mem_ctrls_0.actEnergy                641600400                       # Energy for activate commands per rank (pJ)
system.mem_ctrls_0.preEnergy                341018700                       # Energy for precharge commands per rank (pJ)
system.mem_ctrls_0.readEnergy              3046095360                       # Energy for read commands per rank (pJ)
system.mem_ctrls_0.writeEnergy              973112400                       # Energy for write commands per rank (pJ)
system.mem_ctrls_0.refreshEnergy         17033518320.000002                       # Energy for refresh commands per rank (pJ)
system.mem_ctrls_0.actBackEnergy          11852354850                       # Energy for active background per rank (pJ)
system.mem_ctrls_0.preBackEnergy            877558080                       # Energy for precharge background per rank (pJ)
system.mem_ctrls_0.actPowerDownEnergy     48393563730                       # Energy for active power-down per rank (pJ)
system.mem_ctrls_0.prePowerDownEnergy     21004800480                       # Energy for precharge power-down per rank (pJ)
system.mem_ctrls_0.selfRefreshEnergy     545291244780                       # Energy for self refresh per rank (pJ)
system.mem_ctrls_0.totalEnergy           649462899300                       # Total energy per rank (pJ)
system.mem_ctrls_0.averagePower            264.796213                       # Core power per rank (mW)
system.mem_ctrls_0.totalIdleTime         2424394248500                       # Total Idle time Per DRAM Rank
system.mem_ctrls_0.memoryStateTime::IDLE   1289991250                       # Time in different power states
system.mem_ctrls_0.memoryStateTime::REF    7228831500                       # Time in different power states
system.mem_ctrls_0.memoryStateTime::SREF 2263568184250                       # Time in different power states
system.mem_ctrls_0.memoryStateTime::PRE_PDN  54699992250                       # Time in different power states
system.mem_ctrls_0.memoryStateTime::ACT   19776459250                       # Time in different power states
system.mem_ctrls_0.memoryStateTime::ACT_PDN 106126072000                       # Time in different power states
system.mem_ctrls_1.actEnergy                695557380                       # Energy for activate commands per rank (pJ)
system.mem_ctrls_1.preEnergy                369689925                       # Energy for precharge commands per rank (pJ)
system.mem_ctrls_1.readEnergy              3226823040                       # Energy for read commands per rank (pJ)
system.mem_ctrls_1.writeEnergy             1010743380                       # Energy for write commands per rank (pJ)
system.mem_ctrls_1.refreshEnergy         16765535280.000002                       # Energy for refresh commands per rank (pJ)
system.mem_ctrls_1.actBackEnergy          11996457120                       # Energy for active background per rank (pJ)
system.mem_ctrls_1.preBackEnergy            860943360                       # Energy for precharge background per rank (pJ)
system.mem_ctrls_1.actPowerDownEnergy     47041772250                       # Energy for active power-down per rank (pJ)
system.mem_ctrls_1.prePowerDownEnergy     20345151840                       # Energy for precharge power-down per rank (pJ)
system.mem_ctrls_1.selfRefreshEnergy     546427378020                       # Energy for self refresh per rank (pJ)
system.mem_ctrls_1.totalEnergy           648747296835                       # Total energy per rank (pJ)
system.mem_ctrls_1.averagePower            264.504451                       # Core power per rank (mW)
system.mem_ctrls_1.totalIdleTime         2424122729000                       # Total Idle time Per DRAM Rank
system.mem_ctrls_1.memoryStateTime::IDLE   1260329250                       # Time in different power states
system.mem_ctrls_1.memoryStateTime::REF    7116320000                       # Time in different power states
system.mem_ctrls_1.memoryStateTime::SREF 2267979299500                       # Time in different power states
system.mem_ctrls_1.memoryStateTime::PRE_PDN  52982003500                       # Time in different power states
system.mem_ctrls_1.memoryStateTime::ACT   20190110500                       # Time in different power states
system.mem_ctrls_1.memoryStateTime::ACT_PDN 103161467750                       # Time in different power states
system.pwrStateResidencyTicks::UNDEFINED 2452689530500                       # Cumulative time (in ticks) in various power states
system.bridge.pwrStateResidencyTicks::UNDEFINED 2452689530500                       # Cumulative time (in ticks) in various power states
system.cpu_voltage_domain.voltage                   1                       # Voltage in Volts
system.cpu_clk_domain.clock                       500                       # Clock period in ticks
system.cpu.dtb.fetch_hits                           0                       # ITB hits
system.cpu.dtb.fetch_misses                         0                       # ITB misses
system.cpu.dtb.fetch_acv                            0                       # ITB acv
system.cpu.dtb.fetch_accesses                       0                       # ITB accesses
system.cpu.dtb.read_hits                     16009352                       # DTB read hits
system.cpu.dtb.read_misses                      12449                       # DTB read misses
system.cpu.dtb.read_acv                            98                       # DTB read access violations
system.cpu.dtb.read_accesses                   817055                       # DTB read accesses
system.cpu.dtb.write_hits                     8862672                       # DTB write hits
system.cpu.dtb.write_misses                      1308                       # DTB write misses
system.cpu.dtb.write_acv                          169                       # DTB write access violations
system.cpu.dtb.write_accesses                  324495                       # DTB write accesses
system.cpu.dtb.data_hits                     24872024                       # DTB hits
system.cpu.dtb.data_misses                      13757                       # DTB misses
system.cpu.dtb.data_acv                           267                       # DTB access violations
system.cpu.dtb.data_accesses                  1141550                       # DTB accesses
system.cpu.itb.fetch_hits                     5652877                       # ITB hits
system.cpu.itb.fetch_misses                      6049                       # ITB misses
system.cpu.itb.fetch_acv                            1                       # ITB acv
system.cpu.itb.fetch_accesses                 5658926                       # ITB accesses
system.cpu.itb.read_hits                            0                       # DTB read hits
system.cpu.itb.read_misses                          0                       # DTB read misses
system.cpu.itb.read_acv                             0                       # DTB read access violations
system.cpu.itb.read_accesses                        0                       # DTB read accesses
system.cpu.itb.write_hits                           0                       # DTB write hits
system.cpu.itb.write_misses                         0                       # DTB write misses
system.cpu.itb.write_acv                            0                       # DTB write access violations
system.cpu.itb.write_accesses                       0                       # DTB write accesses
system.cpu.itb.data_hits                            0                       # DTB hits
system.cpu.itb.data_misses                          0                       # DTB misses
system.cpu.itb.data_acv                             0                       # DTB access violations
system.cpu.itb.data_accesses                        0                       # DTB accesses
system.cpu.numPwrStateTransitions               14334                       # Number of power state transitions
system.cpu.pwrStateClkGateDist::samples          7167                       # Distribution of time spent in the clock gated state
system.cpu.pwrStateClkGateDist::mean     306818699.386075                       # Distribution of time spent in the clock gated state
system.cpu.pwrStateClkGateDist::stdev    450456861.058449                       # Distribution of time spent in the clock gated state
system.cpu.pwrStateClkGateDist::1000-5e+10         7167    100.00%    100.00% # Distribution of time spent in the clock gated state
system.cpu.pwrStateClkGateDist::min_value        89000                       # Distribution of time spent in the clock gated state
system.cpu.pwrStateClkGateDist::max_value   2000000000                       # Distribution of time spent in the clock gated state
system.cpu.pwrStateClkGateDist::total            7167                       # Distribution of time spent in the clock gated state
system.cpu.pwrStateResidencyTicks::ON    253719912000                       # Cumulative time (in ticks) in various power states
system.cpu.pwrStateResidencyTicks::CLK_GATED 2198969618500                       # Cumulative time (in ticks) in various power states
system.cpu.numCycles                       4905379061                       # number of cpu cycles simulated
system.cpu.numWorkItemsStarted                      0                       # number of work items this cpu started
system.cpu.numWorkItemsCompleted                    0                       # number of work items this cpu completed
system.cpu.kern.inst.arm                            0                       # number of arm instructions executed
system.cpu.kern.inst.quiesce                     7167                       # number of quiesce instructions executed
system.cpu.kern.callpal::cserve                     1      0.00%      0.00% # number of callpals executed
system.cpu.kern.callpal::wrmces                     1      0.00%      0.00% # number of callpals executed
system.cpu.kern.callpal::wrfen                      1      0.00%      0.00% # number of callpals executed
system.cpu.kern.callpal::wrvptptr                   1      0.00%      0.00% # number of callpals executed
system.cpu.kern.callpal::swpctx                  4520      2.11%      2.12% # number of callpals executed
system.cpu.kern.callpal::tbi                       65      0.03%      2.15% # number of callpals executed
system.cpu.kern.callpal::wrent                      7      0.00%      2.15% # number of callpals executed
system.cpu.kern.callpal::swpipl                196468     91.91%     94.06% # number of callpals executed
system.cpu.kern.callpal::rdps                    5803      2.71%     96.78% # number of callpals executed
system.cpu.kern.callpal::wrkgp                      1      0.00%     96.78% # number of callpals executed
system.cpu.kern.callpal::wrusp                      8      0.00%     96.78% # number of callpals executed
system.cpu.kern.callpal::rdusp                     10      0.00%     96.79% # number of callpals executed
system.cpu.kern.callpal::whami                      2      0.00%     96.79% # number of callpals executed
system.cpu.kern.callpal::rti                     6072      2.84%     99.63% # number of callpals executed
system.cpu.kern.callpal::callsys                  559      0.26%     99.89% # number of callpals executed
system.cpu.kern.callpal::imb                      235      0.11%    100.00% # number of callpals executed
system.cpu.kern.callpal::total                 213754                       # number of callpals executed
system.cpu.kern.inst.hwrei                     236418                       # number of hwrei instructions executed
system.cpu.kern.mode_switch::kernel              6756                       # number of protection mode switches
system.cpu.kern.mode_switch::user                1967                       # number of protection mode switches
system.cpu.kern.mode_switch::idle                2342                       # number of protection mode switches
system.cpu.kern.mode_good::kernel                2046                      
system.cpu.kern.mode_good::user                  1967                      
system.cpu.kern.mode_good::idle                    79                      
system.cpu.kern.mode_switch_good::kernel     0.302842                       # fraction of useful protection mode switches
system.cpu.kern.mode_switch_good::user              1                       # fraction of useful protection mode switches
system.cpu.kern.mode_switch_good::idle       0.033732                       # fraction of useful protection mode switches
system.cpu.kern.mode_switch_good::total      0.369815                       # fraction of useful protection mode switches
system.cpu.kern.mode_ticks::kernel       189439004500      7.72%      7.72% # number of ticks spent at the given mode
system.cpu.kern.mode_ticks::user           9162324000      0.37%      8.10% # number of ticks spent at the given mode
system.cpu.kern.mode_ticks::idle         2254086232000     91.90%    100.00% # number of ticks spent at the given mode
system.cpu.kern.swap_context                     4521                       # number of times the context was actually changed
system.cpu.kern.ipl_count::0                    82509     40.22%     40.22% # number of times we switched to this ipl
system.cpu.kern.ipl_count::21                     117      0.06%     40.28% # number of times we switched to this ipl
system.cpu.kern.ipl_count::22                    2471      1.20%     41.48% # number of times we switched to this ipl
system.cpu.kern.ipl_count::31                  120032     58.52%    100.00% # number of times we switched to this ipl
system.cpu.kern.ipl_count::total               205129                       # number of times we switched to this ipl
system.cpu.kern.ipl_good::0                     80972     49.21%     49.21% # number of times we switched to this ipl from a different ipl
system.cpu.kern.ipl_good::21                      117      0.07%     49.28% # number of times we switched to this ipl from a different ipl
system.cpu.kern.ipl_good::22                     2471      1.50%     50.79% # number of times we switched to this ipl from a different ipl
system.cpu.kern.ipl_good::31                    80972     49.21%    100.00% # number of times we switched to this ipl from a different ipl
system.cpu.kern.ipl_good::total                164532                       # number of times we switched to this ipl from a different ipl
system.cpu.kern.ipl_ticks::0             2366317285000     96.48%     96.48% # number of cycles we spent at this ipl
system.cpu.kern.ipl_ticks::21               100113500      0.00%     96.48% # number of cycles we spent at this ipl
system.cpu.kern.ipl_ticks::22              1104474500      0.05%     96.53% # number of cycles we spent at this ipl
system.cpu.kern.ipl_ticks::31             85165689500      3.47%    100.00% # number of cycles we spent at this ipl
system.cpu.kern.ipl_ticks::total         2452687562500                       # number of cycles we spent at this ipl
system.cpu.kern.ipl_used::0                  0.981372                       # fraction of swpipl calls that actually changed the ipl
system.cpu.kern.ipl_used::21                        1                       # fraction of swpipl calls that actually changed the ipl
system.cpu.kern.ipl_used::22                        1                       # fraction of swpipl calls that actually changed the ipl
system.cpu.kern.ipl_used::31                 0.674587                       # fraction of swpipl calls that actually changed the ipl
system.cpu.kern.ipl_used::total              0.802090                       # fraction of swpipl calls that actually changed the ipl
system.cpu.committedInsts                    91516468                       # Number of instructions committed
system.cpu.committedOps                      91516468                       # Number of ops (including micro ops) committed
system.cpu.num_int_alu_accesses              88521138                       # Number of integer alu accesses
system.cpu.num_fp_alu_accesses                 427122                       # Number of float alu accesses
system.cpu.num_vec_alu_accesses                     0                       # Number of vector alu accesses
system.cpu.num_func_calls                     2909278                       # number of times a function call or return occured
system.cpu.num_conditional_control_insts     11606306                       # number of instructions that are conditional controls
system.cpu.num_int_insts                     88521138                       # number of integer instructions
system.cpu.num_fp_insts                        427122                       # number of float instructions
system.cpu.num_vec_insts                            0                       # number of vector instructions
system.cpu.num_int_register_reads           120918284                       # number of times the integer registers were read
system.cpu.num_int_register_writes           66847027                       # number of times the integer registers were written
system.cpu.num_fp_register_reads               178181                       # number of times the floating registers were read
system.cpu.num_fp_register_writes              181187                       # number of times the floating registers were written
system.cpu.num_vec_register_reads                   0                       # number of times the vector registers were read
system.cpu.num_vec_register_writes                  0                       # number of times the vector registers were written
system.cpu.num_mem_refs                      24930984                       # number of memory refs
system.cpu.num_load_insts                    16050802                       # Number of load instructions
system.cpu.num_store_insts                    8880182                       # Number of store instructions
system.cpu.num_idle_cycles               4397939236.998207                       # Number of idle cycles
system.cpu.num_busy_cycles               507439824.001793                       # Number of busy cycles
system.cpu.not_idle_fraction                 0.103446                       # Percentage of non-idle cycles
system.cpu.idle_fraction                     0.896554                       # Percentage of idle cycles
system.cpu.Branches                          15125786                       # Number of branches fetched
system.cpu.op_class::No_OpClass               1594787      1.74%      1.74% # Class of executed instruction
system.cpu.op_class::IntAlu                  63088111     68.93%     70.67% # Class of executed instruction
system.cpu.op_class::IntMult                   186163      0.20%     70.87% # Class of executed instruction
system.cpu.op_class::IntDiv                         0      0.00%     70.87% # Class of executed instruction
system.cpu.op_class::FloatAdd                  117446      0.13%     71.00% # Class of executed instruction
system.cpu.op_class::FloatCmp                       0      0.00%     71.00% # Class of executed instruction
system.cpu.op_class::FloatCvt                       0      0.00%     71.00% # Class of executed instruction
system.cpu.op_class::FloatMult                      0      0.00%     71.00% # Class of executed instruction
system.cpu.op_class::FloatMultAcc                   0      0.00%     71.00% # Class of executed instruction
system.cpu.op_class::FloatDiv                    4179      0.00%     71.00% # Class of executed instruction
system.cpu.op_class::FloatMisc                      0      0.00%     71.00% # Class of executed instruction
system.cpu.op_class::FloatSqrt                      0      0.00%     71.00% # Class of executed instruction
system.cpu.op_class::SimdAdd                        0      0.00%     71.00% # Class of executed instruction
system.cpu.op_class::SimdAddAcc                     0      0.00%     71.00% # Class of executed instruction
system.cpu.op_class::SimdAlu                        0      0.00%     71.00% # Class of executed instruction
system.cpu.op_class::SimdCmp                        0      0.00%     71.00% # Class of executed instruction
system.cpu.op_class::SimdCvt                        0      0.00%     71.00% # Class of executed instruction
system.cpu.op_class::SimdMisc                       0      0.00%     71.00% # Class of executed instruction
system.cpu.op_class::SimdMult                       0      0.00%     71.00% # Class of executed instruction
system.cpu.op_class::SimdMultAcc                    0      0.00%     71.00% # Class of executed instruction
system.cpu.op_class::SimdShift                      0      0.00%     71.00% # Class of executed instruction
system.cpu.op_class::SimdShiftAcc                   0      0.00%     71.00% # Class of executed instruction
system.cpu.op_class::SimdSqrt                       0      0.00%     71.00% # Class of executed instruction
system.cpu.op_class::SimdFloatAdd                   0      0.00%     71.00% # Class of executed instruction
system.cpu.op_class::SimdFloatAlu                   0      0.00%     71.00% # Class of executed instruction
system.cpu.op_class::SimdFloatCmp                   0      0.00%     71.00% # Class of executed instruction
system.cpu.op_class::SimdFloatCvt                   0      0.00%     71.00% # Class of executed instruction
system.cpu.op_class::SimdFloatDiv                   0      0.00%     71.00% # Class of executed instruction
system.cpu.op_class::SimdFloatMisc                  0      0.00%     71.00% # Class of executed instruction
system.cpu.op_class::SimdFloatMult                  0      0.00%     71.00% # Class of executed instruction
system.cpu.op_class::SimdFloatMultAcc               0      0.00%     71.00% # Class of executed instruction
system.cpu.op_class::SimdFloatSqrt                  0      0.00%     71.00% # Class of executed instruction
system.cpu.op_class::MemRead                 16350205     17.86%     88.87% # Class of executed instruction
system.cpu.op_class::MemWrite                 8805133      9.62%     98.49% # Class of executed instruction
system.cpu.op_class::FloatMemRead              156345      0.17%     98.66% # Class of executed instruction
system.cpu.op_class::FloatMemWrite             149152      0.16%     98.82% # Class of executed instruction
system.cpu.op_class::IprAccess                1078971      1.18%    100.00% # Class of executed instruction
system.cpu.op_class::InstPrefetch                   0      0.00%    100.00% # Class of executed instruction
system.cpu.op_class::total                   91530492                       # Class of executed instruction
system.cpu.dcache.tags.pwrStateResidencyTicks::UNDEFINED 2452689530500                       # Cumulative time (in ticks) in various power states
system.cpu.dcache.tags.replacements           2980504                       # number of replacements
system.cpu.dcache.tags.tagsinuse          1023.952323                       # Cycle average of tags in use
system.cpu.dcache.tags.total_refs            21891779                       # Total number of references to valid blocks.
system.cpu.dcache.tags.sampled_refs           2980504                       # Sample count of references to valid blocks.
system.cpu.dcache.tags.avg_refs              7.344992                       # Average number of references to valid blocks.
system.cpu.dcache.tags.warmup_cycle         168190500                       # Cycle when the warmup percentage was hit.
system.cpu.dcache.tags.occ_blocks::cpu.data  1023.952323                       # Average occupied blocks per requestor
system.cpu.dcache.tags.occ_percent::cpu.data     0.999953                       # Average percentage of cache occupancy
system.cpu.dcache.tags.occ_percent::total     0.999953                       # Average percentage of cache occupancy
system.cpu.dcache.tags.occ_task_id_blocks::1024         1024                       # Occupied blocks per task id
system.cpu.dcache.tags.age_task_id_blocks_1024::0          106                       # Occupied blocks per task id
system.cpu.dcache.tags.age_task_id_blocks_1024::1          808                       # Occupied blocks per task id
system.cpu.dcache.tags.age_task_id_blocks_1024::2          103                       # Occupied blocks per task id
system.cpu.dcache.tags.age_task_id_blocks_1024::3            7                       # Occupied blocks per task id
system.cpu.dcache.tags.occ_task_id_percent::1024            1                       # Percentage of cache occupancy per task id
system.cpu.dcache.tags.tag_accesses         799573506                       # Number of tag accesses
system.cpu.dcache.tags.data_accesses        799573506                       # Number of data accesses
system.cpu.dcache.pwrStateResidencyTicks::UNDEFINED 2452689530500                       # Cumulative time (in ticks) in various power states
system.cpu.dcache.ReadReq_hits::cpu.data     13569204                       # number of ReadReq hits
system.cpu.dcache.ReadReq_hits::total        13569204                       # number of ReadReq hits
system.cpu.dcache.WriteReq_hits::cpu.data      7734717                       # number of WriteReq hits
system.cpu.dcache.WriteReq_hits::total        7734717                       # number of WriteReq hits
system.cpu.dcache.LoadLockedReq_hits::cpu.data       292700                       # number of LoadLockedReq hits
system.cpu.dcache.LoadLockedReq_hits::total       292700                       # number of LoadLockedReq hits
system.cpu.dcache.StoreCondReq_hits::cpu.data       315285                       # number of StoreCondReq hits
system.cpu.dcache.StoreCondReq_hits::total       315285                       # number of StoreCondReq hits
system.cpu.dcache.demand_hits::cpu.data      21303921                       # number of demand (read+write) hits
system.cpu.dcache.demand_hits::total         21303921                       # number of demand (read+write) hits
system.cpu.dcache.overall_hits::cpu.data     21303921                       # number of overall hits
system.cpu.dcache.overall_hits::total        21303921                       # number of overall hits
system.cpu.dcache.ReadReq_misses::cpu.data      2145623                       # number of ReadReq misses
system.cpu.dcache.ReadReq_misses::total       2145623                       # number of ReadReq misses
system.cpu.dcache.WriteReq_misses::cpu.data       812298                       # number of WriteReq misses
system.cpu.dcache.WriteReq_misses::total       812298                       # number of WriteReq misses
system.cpu.dcache.LoadLockedReq_misses::cpu.data        23672                       # number of LoadLockedReq misses
system.cpu.dcache.LoadLockedReq_misses::total        23672                       # number of LoadLockedReq misses
system.cpu.dcache.demand_misses::cpu.data      2957921                       # number of demand (read+write) misses
system.cpu.dcache.demand_misses::total        2957921                       # number of demand (read+write) misses
system.cpu.dcache.overall_misses::cpu.data      2957921                       # number of overall misses
system.cpu.dcache.overall_misses::total       2957921                       # number of overall misses
system.cpu.dcache.ReadReq_miss_latency::cpu.data  54934506000                       # number of ReadReq miss cycles
system.cpu.dcache.ReadReq_miss_latency::total  54934506000                       # number of ReadReq miss cycles
system.cpu.dcache.WriteReq_miss_latency::cpu.data  43378629000                       # number of WriteReq miss cycles
system.cpu.dcache.WriteReq_miss_latency::total  43378629000                       # number of WriteReq miss cycles
system.cpu.dcache.LoadLockedReq_miss_latency::cpu.data    425443000                       # number of LoadLockedReq miss cycles
system.cpu.dcache.LoadLockedReq_miss_latency::total    425443000                       # number of LoadLockedReq miss cycles
system.cpu.dcache.demand_miss_latency::cpu.data  98313135000                       # number of demand (read+write) miss cycles
system.cpu.dcache.demand_miss_latency::total  98313135000                       # number of demand (read+write) miss cycles
system.cpu.dcache.overall_miss_latency::cpu.data  98313135000                       # number of overall miss cycles
system.cpu.dcache.overall_miss_latency::total  98313135000                       # number of overall miss cycles
system.cpu.dcache.ReadReq_accesses::cpu.data     15714827                       # number of ReadReq accesses(hits+misses)
system.cpu.dcache.ReadReq_accesses::total     15714827                       # number of ReadReq accesses(hits+misses)
system.cpu.dcache.WriteReq_accesses::cpu.data      8547015                       # number of WriteReq accesses(hits+misses)
system.cpu.dcache.WriteReq_accesses::total      8547015                       # number of WriteReq accesses(hits+misses)
system.cpu.dcache.LoadLockedReq_accesses::cpu.data       316372                       # number of LoadLockedReq accesses(hits+misses)
system.cpu.dcache.LoadLockedReq_accesses::total       316372                       # number of LoadLockedReq accesses(hits+misses)
system.cpu.dcache.StoreCondReq_accesses::cpu.data       315285                       # number of StoreCondReq accesses(hits+misses)
system.cpu.dcache.StoreCondReq_accesses::total       315285                       # number of StoreCondReq accesses(hits+misses)
system.cpu.dcache.demand_accesses::cpu.data     24261842                       # number of demand (read+write) accesses
system.cpu.dcache.demand_accesses::total     24261842                       # number of demand (read+write) accesses
system.cpu.dcache.overall_accesses::cpu.data     24261842                       # number of overall (read+write) accesses
system.cpu.dcache.overall_accesses::total     24261842                       # number of overall (read+write) accesses
system.cpu.dcache.ReadReq_miss_rate::cpu.data     0.136535                       # miss rate for ReadReq accesses
system.cpu.dcache.ReadReq_miss_rate::total     0.136535                       # miss rate for ReadReq accesses
system.cpu.dcache.WriteReq_miss_rate::cpu.data     0.095039                       # miss rate for WriteReq accesses
system.cpu.dcache.WriteReq_miss_rate::total     0.095039                       # miss rate for WriteReq accesses
system.cpu.dcache.LoadLockedReq_miss_rate::cpu.data     0.074823                       # miss rate for LoadLockedReq accesses
system.cpu.dcache.LoadLockedReq_miss_rate::total     0.074823                       # miss rate for LoadLockedReq accesses
system.cpu.dcache.demand_miss_rate::cpu.data     0.121917                       # miss rate for demand accesses
system.cpu.dcache.demand_miss_rate::total     0.121917                       # miss rate for demand accesses
system.cpu.dcache.overall_miss_rate::cpu.data     0.121917                       # miss rate for overall accesses
system.cpu.dcache.overall_miss_rate::total     0.121917                       # miss rate for overall accesses
system.cpu.dcache.ReadReq_avg_miss_latency::cpu.data 25603.056082                       # average ReadReq miss latency
system.cpu.dcache.ReadReq_avg_miss_latency::total 25603.056082                       # average ReadReq miss latency
system.cpu.dcache.WriteReq_avg_miss_latency::cpu.data 53402.358494                       # average WriteReq miss latency
system.cpu.dcache.WriteReq_avg_miss_latency::total 53402.358494                       # average WriteReq miss latency
system.cpu.dcache.LoadLockedReq_avg_miss_latency::cpu.data 17972.414667                       # average LoadLockedReq miss latency
system.cpu.dcache.LoadLockedReq_avg_miss_latency::total 17972.414667                       # average LoadLockedReq miss latency
system.cpu.dcache.demand_avg_miss_latency::cpu.data 33237.241630                       # average overall miss latency
system.cpu.dcache.demand_avg_miss_latency::total 33237.241630                       # average overall miss latency
system.cpu.dcache.overall_avg_miss_latency::cpu.data 33237.241630                       # average overall miss latency
system.cpu.dcache.overall_avg_miss_latency::total 33237.241630                       # average overall miss latency
system.cpu.dcache.blocked_cycles::no_mshrs            0                       # number of cycles access was blocked
system.cpu.dcache.blocked_cycles::no_targets            0                       # number of cycles access was blocked
system.cpu.dcache.blocked::no_mshrs                 0                       # number of cycles access was blocked
system.cpu.dcache.blocked::no_targets               0                       # number of cycles access was blocked
system.cpu.dcache.avg_blocked_cycles::no_mshrs          nan                       # average number of cycles each access was blocked
system.cpu.dcache.avg_blocked_cycles::no_targets          nan                       # average number of cycles each access was blocked
system.cpu.dcache.writebacks::writebacks      2302612                       # number of writebacks
system.cpu.dcache.writebacks::total           2302612                       # number of writebacks
system.cpu.dcache.ReadReq_mshr_misses::cpu.data      2145623                       # number of ReadReq MSHR misses
system.cpu.dcache.ReadReq_mshr_misses::total      2145623                       # number of ReadReq MSHR misses
system.cpu.dcache.WriteReq_mshr_misses::cpu.data       812298                       # number of WriteReq MSHR misses
system.cpu.dcache.WriteReq_mshr_misses::total       812298                       # number of WriteReq MSHR misses
system.cpu.dcache.LoadLockedReq_mshr_misses::cpu.data        23672                       # number of LoadLockedReq MSHR misses
system.cpu.dcache.LoadLockedReq_mshr_misses::total        23672                       # number of LoadLockedReq MSHR misses
system.cpu.dcache.demand_mshr_misses::cpu.data      2957921                       # number of demand (read+write) MSHR misses
system.cpu.dcache.demand_mshr_misses::total      2957921                       # number of demand (read+write) MSHR misses
system.cpu.dcache.overall_mshr_misses::cpu.data      2957921                       # number of overall MSHR misses
system.cpu.dcache.overall_mshr_misses::total      2957921                       # number of overall MSHR misses
system.cpu.dcache.ReadReq_mshr_uncacheable::cpu.data         7056                       # number of ReadReq MSHR uncacheable
system.cpu.dcache.ReadReq_mshr_uncacheable::total         7056                       # number of ReadReq MSHR uncacheable
system.cpu.dcache.WriteReq_mshr_uncacheable::cpu.data        10332                       # number of WriteReq MSHR uncacheable
system.cpu.dcache.WriteReq_mshr_uncacheable::total        10332                       # number of WriteReq MSHR uncacheable
system.cpu.dcache.overall_mshr_uncacheable_misses::cpu.data        17388                       # number of overall MSHR uncacheable misses
system.cpu.dcache.overall_mshr_uncacheable_misses::total        17388                       # number of overall MSHR uncacheable misses
system.cpu.dcache.ReadReq_mshr_miss_latency::cpu.data  52788883000                       # number of ReadReq MSHR miss cycles
system.cpu.dcache.ReadReq_mshr_miss_latency::total  52788883000                       # number of ReadReq MSHR miss cycles
system.cpu.dcache.WriteReq_mshr_miss_latency::cpu.data  42566331000                       # number of WriteReq MSHR miss cycles
system.cpu.dcache.WriteReq_mshr_miss_latency::total  42566331000                       # number of WriteReq MSHR miss cycles
system.cpu.dcache.LoadLockedReq_mshr_miss_latency::cpu.data    401771000                       # number of LoadLockedReq MSHR miss cycles
system.cpu.dcache.LoadLockedReq_mshr_miss_latency::total    401771000                       # number of LoadLockedReq MSHR miss cycles
system.cpu.dcache.demand_mshr_miss_latency::cpu.data  95355214000                       # number of demand (read+write) MSHR miss cycles
system.cpu.dcache.demand_mshr_miss_latency::total  95355214000                       # number of demand (read+write) MSHR miss cycles
system.cpu.dcache.overall_mshr_miss_latency::cpu.data  95355214000                       # number of overall MSHR miss cycles
system.cpu.dcache.overall_mshr_miss_latency::total  95355214000                       # number of overall MSHR miss cycles
system.cpu.dcache.ReadReq_mshr_uncacheable_latency::cpu.data   1566159000                       # number of ReadReq MSHR uncacheable cycles
system.cpu.dcache.ReadReq_mshr_uncacheable_latency::total   1566159000                       # number of ReadReq MSHR uncacheable cycles
system.cpu.dcache.overall_mshr_uncacheable_latency::cpu.data   1566159000                       # number of overall MSHR uncacheable cycles
system.cpu.dcache.overall_mshr_uncacheable_latency::total   1566159000                       # number of overall MSHR uncacheable cycles
system.cpu.dcache.ReadReq_mshr_miss_rate::cpu.data     0.136535                       # mshr miss rate for ReadReq accesses
system.cpu.dcache.ReadReq_mshr_miss_rate::total     0.136535                       # mshr miss rate for ReadReq accesses
system.cpu.dcache.WriteReq_mshr_miss_rate::cpu.data     0.095039                       # mshr miss rate for WriteReq accesses
system.cpu.dcache.WriteReq_mshr_miss_rate::total     0.095039                       # mshr miss rate for WriteReq accesses
system.cpu.dcache.LoadLockedReq_mshr_miss_rate::cpu.data     0.074823                       # mshr miss rate for LoadLockedReq accesses
system.cpu.dcache.LoadLockedReq_mshr_miss_rate::total     0.074823                       # mshr miss rate for LoadLockedReq accesses
system.cpu.dcache.demand_mshr_miss_rate::cpu.data     0.121917                       # mshr miss rate for demand accesses
system.cpu.dcache.demand_mshr_miss_rate::total     0.121917                       # mshr miss rate for demand accesses
system.cpu.dcache.overall_mshr_miss_rate::cpu.data     0.121917                       # mshr miss rate for overall accesses
system.cpu.dcache.overall_mshr_miss_rate::total     0.121917                       # mshr miss rate for overall accesses
system.cpu.dcache.ReadReq_avg_mshr_miss_latency::cpu.data 24603.056082                       # average ReadReq mshr miss latency
system.cpu.dcache.ReadReq_avg_mshr_miss_latency::total 24603.056082                       # average ReadReq mshr miss latency
system.cpu.dcache.WriteReq_avg_mshr_miss_latency::cpu.data 52402.358494                       # average WriteReq mshr miss latency
system.cpu.dcache.WriteReq_avg_mshr_miss_latency::total 52402.358494                       # average WriteReq mshr miss latency
system.cpu.dcache.LoadLockedReq_avg_mshr_miss_latency::cpu.data 16972.414667                       # average LoadLockedReq mshr miss latency
system.cpu.dcache.LoadLockedReq_avg_mshr_miss_latency::total 16972.414667                       # average LoadLockedReq mshr miss latency
system.cpu.dcache.demand_avg_mshr_miss_latency::cpu.data 32237.241630                       # average overall mshr miss latency
system.cpu.dcache.demand_avg_mshr_miss_latency::total 32237.241630                       # average overall mshr miss latency
system.cpu.dcache.overall_avg_mshr_miss_latency::cpu.data 32237.241630                       # average overall mshr miss latency
system.cpu.dcache.overall_avg_mshr_miss_latency::total 32237.241630                       # average overall mshr miss latency
system.cpu.dcache.ReadReq_avg_mshr_uncacheable_latency::cpu.data 221961.309524                       # average ReadReq mshr uncacheable latency
system.cpu.dcache.ReadReq_avg_mshr_uncacheable_latency::total 221961.309524                       # average ReadReq mshr uncacheable latency
system.cpu.dcache.overall_avg_mshr_uncacheable_latency::cpu.data 90071.256039                       # average overall mshr uncacheable latency
system.cpu.dcache.overall_avg_mshr_uncacheable_latency::total 90071.256039                       # average overall mshr uncacheable latency
system.cpu.icache.tags.pwrStateResidencyTicks::UNDEFINED 2452689530500                       # Cumulative time (in ticks) in various power states
system.cpu.icache.tags.replacements           2495130                       # number of replacements
system.cpu.icache.tags.tagsinuse           511.171746                       # Cycle average of tags in use
system.cpu.icache.tags.total_refs            88952647                       # Total number of references to valid blocks.
system.cpu.icache.tags.sampled_refs           2495130                       # Sample count of references to valid blocks.
system.cpu.icache.tags.avg_refs             35.650506                       # Average number of references to valid blocks.
system.cpu.icache.tags.warmup_cycle       39817604500                       # Cycle when the warmup percentage was hit.
system.cpu.icache.tags.occ_blocks::cpu.inst   511.171746                       # Average occupied blocks per requestor
system.cpu.icache.tags.occ_percent::cpu.inst     0.998382                       # Average percentage of cache occupancy
system.cpu.icache.tags.occ_percent::total     0.998382                       # Average percentage of cache occupancy
system.cpu.icache.tags.occ_task_id_blocks::1024          512                       # Occupied blocks per task id
system.cpu.icache.tags.age_task_id_blocks_1024::0          180                       # Occupied blocks per task id
system.cpu.icache.tags.age_task_id_blocks_1024::1           37                       # Occupied blocks per task id
system.cpu.icache.tags.age_task_id_blocks_1024::2          195                       # Occupied blocks per task id
system.cpu.icache.tags.age_task_id_blocks_1024::3          100                       # Occupied blocks per task id
system.cpu.icache.tags.occ_task_id_percent::1024            1                       # Percentage of cache occupancy per task id
system.cpu.icache.tags.tag_accesses         185556843                       # Number of tag accesses
system.cpu.icache.tags.data_accesses        185556843                       # Number of data accesses
system.cpu.icache.pwrStateResidencyTicks::UNDEFINED 2452689530500                       # Cumulative time (in ticks) in various power states
system.cpu.icache.ReadReq_hits::cpu.inst     89034636                       # number of ReadReq hits
system.cpu.icache.ReadReq_hits::total        89034636                       # number of ReadReq hits
system.cpu.icache.demand_hits::cpu.inst      89034636                       # number of demand (read+write) hits
system.cpu.icache.demand_hits::total         89034636                       # number of demand (read+write) hits
system.cpu.icache.overall_hits::cpu.inst     89034636                       # number of overall hits
system.cpu.icache.overall_hits::total        89034636                       # number of overall hits
system.cpu.icache.ReadReq_misses::cpu.inst      2495857                       # number of ReadReq misses
system.cpu.icache.ReadReq_misses::total       2495857                       # number of ReadReq misses
system.cpu.icache.demand_misses::cpu.inst      2495857                       # number of demand (read+write) misses
system.cpu.icache.demand_misses::total        2495857                       # number of demand (read+write) misses
system.cpu.icache.overall_misses::cpu.inst      2495857                       # number of overall misses
system.cpu.icache.overall_misses::total       2495857                       # number of overall misses
system.cpu.icache.ReadReq_miss_latency::cpu.inst  40083986500                       # number of ReadReq miss cycles
system.cpu.icache.ReadReq_miss_latency::total  40083986500                       # number of ReadReq miss cycles
system.cpu.icache.demand_miss_latency::cpu.inst  40083986500                       # number of demand (read+write) miss cycles
system.cpu.icache.demand_miss_latency::total  40083986500                       # number of demand (read+write) miss cycles
system.cpu.icache.overall_miss_latency::cpu.inst  40083986500                       # number of overall miss cycles
system.cpu.icache.overall_miss_latency::total  40083986500                       # number of overall miss cycles
system.cpu.icache.ReadReq_accesses::cpu.inst     91530493                       # number of ReadReq accesses(hits+misses)
system.cpu.icache.ReadReq_accesses::total     91530493                       # number of ReadReq accesses(hits+misses)
system.cpu.icache.demand_accesses::cpu.inst     91530493                       # number of demand (read+write) accesses
system.cpu.icache.demand_accesses::total     91530493                       # number of demand (read+write) accesses
system.cpu.icache.overall_accesses::cpu.inst     91530493                       # number of overall (read+write) accesses
system.cpu.icache.overall_accesses::total     91530493                       # number of overall (read+write) accesses
[...]
system.l2.overall_avg_mshr_uncacheable_latency::total 120416.589003                       # average overall mshr uncacheable latency
system.membus.snoop_filter.tot_requests         98335                       # Total number of requests made to the snoop filter.
system.membus.snoop_filter.hit_single_requests        54981                       # Number of requests hitting in the snoop filter with a single holder of the requested data.
system.membus.snoop_filter.hit_multi_requests           27                       # Number of requests hitting in the snoop filter with multiple (>1) holders of the requested data.
system.membus.snoop_filter.tot_snoops               0                       # Total number of snoops made to the snoop filter.
system.membus.snoop_filter.hit_single_snoops            0                       # Number of snoops hitting in the snoop filter with a single holder of the requested data.
system.membus.snoop_filter.hit_multi_snoops            0                       # Number of snoops hitting in the snoop filter with multiple (>1) holders of the requested data.
system.membus.pwrStateResidencyTicks::UNDEFINED   6163399000                       # Cumulative time (in ticks) in various power states
system.membus.trans_dist::ReadReq                 610                       # Transaction distribution
system.membus.trans_dist::ReadResp              15460                       # Transaction distribution
system.membus.trans_dist::WriteReq                463                       # Transaction distribution
system.membus.trans_dist::WriteResp               463                       # Transaction distribution
system.membus.trans_dist::WritebackDirty        31171                       # Transaction distribution
system.membus.trans_dist::CleanEvict            15401                       # Transaction distribution
system.membus.trans_dist::UpgradeReq               14                       # Transaction distribution
system.membus.trans_dist::ReadExReq             14238                       # Transaction distribution
system.membus.trans_dist::ReadExResp            14238                       # Transaction distribution
system.membus.trans_dist::ReadSharedReq         14850                       # Transaction distribution
system.membus.trans_dist::InvalidateReq         22656                       # Transaction distribution
system.membus.trans_dist::InvalidateResp         8390                       # Transaction distribution
system.membus.pkt_count_system.iocache.mem_side::system.mem_ctrls.port        45366                       # Packet count per connected master and slave (bytes)
system.membus.pkt_count_system.iocache.mem_side::total        45366                       # Packet count per connected master and slave (bytes)
system.membus.pkt_count_system.l2.mem_side::system.bridge.slave         2146                       # Packet count per connected master and slave (bytes)
system.membus.pkt_count_system.l2.mem_side::system.mem_ctrls.port        82025                       # Packet count per connected master and slave (bytes)
system.membus.pkt_count_system.l2.mem_side::total        84171                       # Packet count per connected master and slave (bytes)
system.membus.pkt_count::total                 129537                       # Packet count per connected master and slave (bytes)
system.membus.pkt_size_system.iocache.mem_side::system.mem_ctrls.port       724992                       # Cumulative packet size per connected master and slave (bytes)
system.membus.pkt_size_system.iocache.mem_side::total       724992                       # Cumulative packet size per connected master and slave (bytes)
system.membus.pkt_size_system.l2.mem_side::system.bridge.slave         1727                       # Cumulative packet size per connected master and slave (bytes)
system.membus.pkt_size_system.l2.mem_side::system.mem_ctrls.port      1202432                       # Cumulative packet size per connected master and slave (bytes)
system.membus.pkt_size_system.l2.mem_side::total      1204159                       # Cumulative packet size per connected master and slave (bytes)
system.membus.pkt_size::total                 1929151                       # Cumulative packet size per connected master and slave (bytes)
system.membus.snoops                             8417                       # Total snoops (count)
system.membus.snoopTraffic                        864                       # Total snoop traffic (bytes)
system.membus.snoop_fanout::samples             52831                       # Request fanout histogram
system.membus.snoop_fanout::mean             0.159319                       # Request fanout histogram
system.membus.snoop_fanout::stdev            0.365977                       # Request fanout histogram
system.membus.snoop_fanout::underflows              0      0.00%      0.00% # Request fanout histogram
system.membus.snoop_fanout::0                   44414     84.07%     84.07% # Request fanout histogram
system.membus.snoop_fanout::1                    8417     15.93%    100.00% # Request fanout histogram
system.membus.snoop_fanout::2                       0      0.00%    100.00% # Request fanout histogram
system.membus.snoop_fanout::overflows               0      0.00%    100.00% # Request fanout histogram
system.membus.snoop_fanout::min_value               0                       # Request fanout histogram
system.membus.snoop_fanout::max_value               1                       # Request fanout histogram
system.membus.snoop_fanout::total               52831                       # Request fanout histogram
system.membus.reqLayer0.occupancy             1822500                       # Layer occupancy (ticks)
system.membus.reqLayer0.utilization               0.0                       # Layer utilization (%)
system.membus.reqLayer1.occupancy           160707795                       # Layer occupancy (ticks)
system.membus.reqLayer1.utilization               2.6                       # Layer utilization (%)
system.membus.respLayer1.occupancy            8809790                       # Layer occupancy (ticks)
system.membus.respLayer1.utilization              0.1                       # Layer utilization (%)
system.membus.respLayer2.occupancy           97670250                       # Layer occupancy (ticks)
system.membus.respLayer2.utilization              1.6                       # Layer utilization (%)
system.membus.badaddr_responder.pwrStateResidencyTicks::UNDEFINED   6163399000                       # Cumulative time (in ticks) in various power states
system.tol2bus.snoop_filter.tot_requests       218278                       # Total number of requests made to the snoop filter.
system.tol2bus.snoop_filter.hit_single_requests       109143                       # Number of requests hitting in the snoop filter with a single holder of the requested data.
system.tol2bus.snoop_filter.hit_multi_requests          342                       # Number of requests hitting in the snoop filter with multiple (>1) holders of the requested data.
system.tol2bus.snoop_filter.tot_snoops           1060                       # Total number of snoops made to the snoop filter.
system.tol2bus.snoop_filter.hit_single_snoops         1060                       # Number of snoops hitting in the snoop filter with a single holder of the requested data.
system.tol2bus.snoop_filter.hit_multi_snoops            0                       # Number of snoops hitting in the snoop filter with multiple (>1) holders of the requested data.
system.tol2bus.pwrStateResidencyTicks::UNDEFINED   6163399000                       # Cumulative time (in ticks) in various power states
system.tol2bus.trans_dist::ReadReq                610                       # Transaction distribution
system.tol2bus.trans_dist::ReadResp             82455                       # Transaction distribution
system.tol2bus.trans_dist::WriteReq               463                       # Transaction distribution
system.tol2bus.trans_dist::WriteResp              463                       # Transaction distribution
system.tol2bus.trans_dist::WritebackDirty        44018                       # Transaction distribution
system.tol2bus.trans_dist::WritebackClean        59046                       # Transaction distribution
system.tol2bus.trans_dist::CleanEvict           30588                       # Transaction distribution
system.tol2bus.trans_dist::UpgradeReq               9                       # Transaction distribution
system.tol2bus.trans_dist::UpgradeResp              9                       # Transaction distribution
system.tol2bus.trans_dist::ReadExReq            27320                       # Transaction distribution
system.tol2bus.trans_dist::ReadExResp           27320                       # Transaction distribution
system.tol2bus.trans_dist::ReadCleanReq         59053                       # Transaction distribution
system.tol2bus.trans_dist::ReadSharedReq        22792                       # Transaction distribution
system.tol2bus.trans_dist::InvalidateReq         8390                       # Transaction distribution
system.tol2bus.pkt_count_system.cpu.icache.mem_side::system.l2.cpu_side       177150                       # Packet count per connected master and slave (bytes)
system.tol2bus.pkt_count_system.cpu.dcache.mem_side::system.l2.cpu_side       152446                       # Packet count per connected master and slave (bytes)
system.tol2bus.pkt_count::total                329596                       # Packet count per connected master and slave (bytes)
system.tol2bus.pkt_size_system.cpu.icache.mem_side::system.l2.cpu_side      3779104                       # Cumulative packet size per connected master and slave (bytes)
system.tol2bus.pkt_size_system.cpu.dcache.mem_side::system.l2.cpu_side      2741407                       # Cumulative packet size per connected master and slave (bytes)
system.tol2bus.pkt_size::total                6520511                       # Cumulative packet size per connected master and slave (bytes)
system.tol2bus.snoops                           32967                       # Total snoops (count)
system.tol2bus.snoopTraffic                    273408                       # Total snoop traffic (bytes)
system.tol2bus.snoop_fanout::samples           143158                       # Request fanout histogram
system.tol2bus.snoop_fanout::mean            0.009807                       # Request fanout histogram
system.tol2bus.snoop_fanout::stdev           0.098546                       # Request fanout histogram
system.tol2bus.snoop_fanout::underflows             0      0.00%      0.00% # Request fanout histogram
system.tol2bus.snoop_fanout::0                 141754     99.02%     99.02% # Request fanout histogram
system.tol2bus.snoop_fanout::1                   1404      0.98%    100.00% # Request fanout histogram
system.tol2bus.snoop_fanout::2                      0      0.00%    100.00% # Request fanout histogram
system.tol2bus.snoop_fanout::overflows              0      0.00%    100.00% # Request fanout histogram
system.tol2bus.snoop_fanout::min_value              0                       # Request fanout histogram
system.tol2bus.snoop_fanout::max_value              1                       # Request fanout histogram
system.tol2bus.snoop_fanout::total             143158                       # Request fanout histogram
system.tol2bus.reqLayer0.occupancy          157181500                       # Layer occupancy (ticks)
system.tol2bus.reqLayer0.utilization              2.6                       # Layer utilization (%)
system.tol2bus.snoopLayer0.occupancy            34485                       # Layer occupancy (ticks)
system.tol2bus.snoopLayer0.utilization            0.0                       # Layer utilization (%)
system.tol2bus.respLayer0.occupancy          59053000                       # Layer occupancy (ticks)
system.tol2bus.respLayer0.utilization             1.0                       # Layer utilization (%)
system.tol2bus.respLayer1.occupancy          50931000                       # Layer occupancy (ticks)
system.tol2bus.respLayer1.utilization             0.8                       # Layer utilization (%)
system.tsunami.backdoor.pwrStateResidencyTicks::UNDEFINED   6163399000                       # Cumulative time (in ticks) in various power states
system.tsunami.cchip.pwrStateResidencyTicks::UNDEFINED   6163399000                       # Cumulative time (in ticks) in various power states
system.tsunami.pchip.pwrStateResidencyTicks::UNDEFINED   6163399000                       # Cumulative time (in ticks) in various power states
system.tsunami.ethernet.pwrStateResidencyTicks::UNDEFINED   6163399000                       # Cumulative time (in ticks) in various power states
system.tsunami.ethernet.descDMAReads                0                       # Number of descriptors the device read w/ DMA
system.tsunami.ethernet.descDMAWrites               0                       # Number of descriptors the device wrote w/ DMA
system.tsunami.ethernet.descDmaReadBytes            0                       # number of descriptor bytes read w/ DMA
system.tsunami.ethernet.descDmaWriteBytes            0                       # number of descriptor bytes write w/ DMA
system.tsunami.ethernet.postedSwi                   0                       # number of software interrupts posted to CPU
system.tsunami.ethernet.coalescedSwi              nan                       # average number of Swi's coalesced into each post
system.tsunami.ethernet.totalSwi                    0                       # total number of Swi written to ISR
system.tsunami.ethernet.postedRxIdle                0                       # number of rxIdle interrupts posted to CPU
system.tsunami.ethernet.coalescedRxIdle           nan                       # average number of RxIdle's coalesced into each post
system.tsunami.ethernet.totalRxIdle                 0                       # total number of RxIdle written to ISR
system.tsunami.ethernet.postedRxOk                  0                       # number of RxOk interrupts posted to CPU
system.tsunami.ethernet.coalescedRxOk             nan                       # average number of RxOk's coalesced into each post
system.tsunami.ethernet.totalRxOk                   0                       # total number of RxOk written to ISR
system.tsunami.ethernet.postedRxDesc                0                       # number of RxDesc interrupts posted to CPU
system.tsunami.ethernet.coalescedRxDesc           nan                       # average number of RxDesc's coalesced into each post
system.tsunami.ethernet.totalRxDesc                 0                       # total number of RxDesc written to ISR
system.tsunami.ethernet.postedTxOk                  0                       # number of TxOk interrupts posted to CPU
system.tsunami.ethernet.coalescedTxOk             nan                       # average number of TxOk's coalesced into each post
system.tsunami.ethernet.totalTxOk                   0                       # total number of TxOk written to ISR
system.tsunami.ethernet.postedTxIdle                0                       # number of TxIdle interrupts posted to CPU
system.tsunami.ethernet.coalescedTxIdle           nan                       # average number of TxIdle's coalesced into each post
system.tsunami.ethernet.totalTxIdle                 0                       # total number of TxIdle written to ISR
system.tsunami.ethernet.postedTxDesc                0                       # number of TxDesc interrupts posted to CPU
system.tsunami.ethernet.coalescedTxDesc           nan                       # average number of TxDesc's coalesced into each post
system.tsunami.ethernet.totalTxDesc                 0                       # total number of TxDesc written to ISR
system.tsunami.ethernet.postedRxOrn                 0                       # number of RxOrn posted to CPU
system.tsunami.ethernet.coalescedRxOrn            nan                       # average number of RxOrn's coalesced into each post
system.tsunami.ethernet.totalRxOrn                  0                       # total number of RxOrn written to ISR
system.tsunami.ethernet.coalescedTotal            nan                       # average number of interrupts coalesced into each post
system.tsunami.ethernet.postedInterrupts            0                       # number of posts to CPU
system.tsunami.ethernet.droppedPackets              0                       # number of packets dropped
system.tsunami.fake_OROM.pwrStateResidencyTicks::UNDEFINED   6163399000                       # Cumulative time (in ticks) in various power states
system.tsunami.fake_ata0.pwrStateResidencyTicks::UNDEFINED   6163399000                       # Cumulative time (in ticks) in various power states
system.tsunami.fake_ata1.pwrStateResidencyTicks::UNDEFINED   6163399000                       # Cumulative time (in ticks) in various power states
system.tsunami.fake_pnp_addr.pwrStateResidencyTicks::UNDEFINED   6163399000                       # Cumulative time (in ticks) in various power states
system.tsunami.fake_pnp_read0.pwrStateResidencyTicks::UNDEFINED   6163399000                       # Cumulative time (in ticks) in various power states
system.tsunami.fake_pnp_read1.pwrStateResidencyTicks::UNDEFINED   6163399000                       # Cumulative time (in ticks) in various power states
system.tsunami.fake_pnp_read2.pwrStateResidencyTicks::UNDEFINED   6163399000                       # Cumulative time (in ticks) in various power states
system.tsunami.fake_pnp_read3.pwrStateResidencyTicks::UNDEFINED   6163399000                       # Cumulative time (in ticks) in various power states
system.tsunami.fake_pnp_read4.pwrStateResidencyTicks::UNDEFINED   6163399000                       # Cumulative time (in ticks) in various power states
system.tsunami.fake_pnp_read5.pwrStateResidencyTicks::UNDEFINED   6163399000                       # Cumulative time (in ticks) in various power states
system.tsunami.fake_pnp_read6.pwrStateResidencyTicks::UNDEFINED   6163399000                       # Cumulative time (in ticks) in various power states
system.tsunami.fake_pnp_read7.pwrStateResidencyTicks::UNDEFINED   6163399000                       # Cumulative time (in ticks) in various power states
system.tsunami.fake_pnp_write.pwrStateResidencyTicks::UNDEFINED   6163399000                       # Cumulative time (in ticks) in various power states
system.tsunami.fake_ppc.pwrStateResidencyTicks::UNDEFINED   6163399000                       # Cumulative time (in ticks) in various power states
system.tsunami.fake_sm_chip.pwrStateResidencyTicks::UNDEFINED   6163399000                       # Cumulative time (in ticks) in various power states
system.tsunami.fake_uart1.pwrStateResidencyTicks::UNDEFINED   6163399000                       # Cumulative time (in ticks) in various power states
system.tsunami.fake_uart2.pwrStateResidencyTicks::UNDEFINED   6163399000                       # Cumulative time (in ticks) in various power states
system.tsunami.fake_uart3.pwrStateResidencyTicks::UNDEFINED   6163399000                       # Cumulative time (in ticks) in various power states
system.tsunami.fake_uart4.pwrStateResidencyTicks::UNDEFINED   6163399000                       # Cumulative time (in ticks) in various power states
system.tsunami.fb.pwrStateResidencyTicks::UNDEFINED   6163399000                       # Cumulative time (in ticks) in various power states
system.tsunami.ide.pwrStateResidencyTicks::UNDEFINED   6163399000                       # Cumulative time (in ticks) in various power states
system.tsunami.io.pwrStateResidencyTicks::UNDEFINED   6163399000                       # Cumulative time (in ticks) in various power states
system.tsunami.uart.pwrStateResidencyTicks::UNDEFINED   6163399000                       # Cumulative time (in ticks) in various power states

---------- End Simulation Statistics   ----------
