---------- Begin Simulation Statistics ----------
sim_seconds                                  0.006163                       # Number of seconds simulated
sim_ticks                                  6163399000                       # Number of ticks simulated
system.cpu.dcache.tags.replacements             50085                       # number of replacements
system.cpu.dcache.tags.total_refs              560719                       # Total number of references to valid blocks.
system.cpu.dcache.tags.avg_refs             10.971042                       # Average number of references to valid blocks.
system.cpu.dcache.tags.occ_percent::total            1                       # Average percentage of cache occupancy
system.cpu.dcache.tags.data_accesses         18949989                       # Number of data accesses
system.cpu.dcache.ReadReq_hits::total          303593                       # number of ReadReq hits
system.cpu.dcache.WriteReq_hits::total         225227                       # number of WriteReq hits
system.cpu.dcache.overall_hits::total          528820                       # number of overall hits
system.cpu.dcache.ReadReq_misses::total         22097                       # number of ReadReq misses
system.cpu.dcache.overall_misses::total         49426                       # number of overall misses
system.cpu.dcache.ReadReq_miss_rate::total     0.067847                       # miss rate for ReadReq accesses
system.cpu.dcache.WriteReq_miss_rate::total     0.108210                       # miss rate for WriteReq accesses
system.cpu.dcache.overall_miss_rate::total     0.085476                       # miss rate for overall accesses
system.cpu.dcache.writebacks::total             35503                       # number of writebacks
system.l2.tags.replacements                     24521                       # number of replacements
system.l2.tags.total_refs                     1269228                       # Total number of references to valid blocks.
system.l2.tags.avg_refs                     23.477267                       # Average number of references to valid blocks.
system.l2.tags.occ_percent::total            0.864507                       # Average percentage of cache occupancy
system.l2.tags.data_accesses                   465850                       # Number of data accesses
system.l2.overall_hits::total                   80069                       # number of overall hits
system.l2.overall_misses::total                 29067                       # number of overall misses
system.l2.overall_miss_rate::total           0.266337                       # miss rate for overall accesses
system.l2.writebacks::total                      8515                       # number of writebacks
---------- End Simulation Statistics   ----------
