---------- Begin Simulation Statistics ----------
sim_seconds                                  0.006992                       # Number of seconds simulated
sim_ticks                                  6991703000                       # Number of ticks simulated
system.cpu.dcache.tags.replacements             30528                       # number of replacements
system.cpu.dcache.tags.total_refs              564583                       # Total number of references to valid blocks.
system.cpu.dcache.tags.avg_refs             18.416721                       # Average number of references to valid blocks.
system.cpu.dcache.tags.occ_percent::total            1                       # Average percentage of cache occupancy
system.cpu.dcache.tags.data_accesses         18804544                       # Number of data accesses
system.cpu.dcache.ReadReq_hits::total          301173                       # number of ReadReq hits
system.cpu.dcache.WriteReq_hits::total         243508                       # number of WriteReq hits
system.cpu.dcache.overall_hits::total          544681                       # number of overall hits
system.cpu.dcache.ReadReq_misses::total         21441                       # number of ReadReq misses
system.cpu.dcache.overall_misses::total         29718                       # number of overall misses
system.cpu.dcache.ReadReq_miss_rate::total     0.066460                       # miss rate for ReadReq accesses
system.cpu.dcache.WriteReq_miss_rate::total     0.032873                       # miss rate for WriteReq accesses
system.cpu.dcache.overall_miss_rate::total     0.051738                       # miss rate for overall accesses
system.cpu.dcache.writebacks::total             14285                       # number of writebacks
system.l2.tags.replacements                     43720                       # number of replacements
system.l2.tags.total_refs                      100751                       # Total number of references to valid blocks.
system.l2.tags.avg_refs                      2.277785                       # Average number of references to valid blocks.
system.l2.tags.occ_percent::total                   1                       # Average percentage of cache occupancy
system.l2.tags.data_accesses                  1189008                       # Number of data accesses
system.l2.overall_hits::total                   31198                       # number of overall hits
system.l2.overall_misses::total                 40487                       # number of overall misses
system.l2.overall_miss_rate::total           0.564790                       # miss rate for overall accesses
system.l2.writebacks::total                     10489                       # number of writebacks
---------- End Simulation Statistics   ----------
