
---------- Begin Simulation Statistics ----------
sim_seconds                                  2.455256                       # Number of seconds simulated
sim_ticks                                2455256280500                       # Number of ticks simulated
final_tick                               2455256280500                       # Number of ticks from beginning of simulation (restored from checkpoints and never reset)
sim_freq                                 1000000000000                       # Frequency of simulated ticks
host_inst_rate                                 235438                       # Simulator instruction rate (inst/s)
host_op_rate                                   235438                       # Simulator op (including micro ops) rate (op/s)
host_tick_rate                             5151233223                       # Simulator tick rate (ticks/s)
host_mem_usage                                 750700                       # Number of bytes of host memory used
host_seconds                                   476.63                       # Real time elapsed on the host
sim_insts                                   112218008                       # Number of instructions simulated
sim_ops                                     112218008                       # Number of ops (including micro ops) simulated
system.voltage_domain.voltage                       1                       # Voltage in Volts
system.clk_domain.clock                          1000                       # Clock period in ticks
system.mem_ctrls.pwrStateResidencyTicks::UNDEFINED 2455256280500                       # Cumulative time (in ticks) in various power states
system.mem_ctrls.bytes_read::cpu0.inst         742144                       # Number of bytes read from this memory
system.mem_ctrls.bytes_read::cpu0.data       21488832                       # Number of bytes read from this memory
system.mem_ctrls.bytes_read::cpu1.inst          19328                       # Number of bytes read from this memory
system.mem_ctrls.bytes_read::cpu1.data         326848                       # Number of bytes read from this memory
system.mem_ctrls.bytes_read::cpu2.inst         591936                       # Number of bytes read from this memory
system.mem_ctrls.bytes_read::cpu2.data        3196224                       # Number of bytes read from this memory
system.mem_ctrls.bytes_read::cpu3.inst         273824                       # Number of bytes read from this memory
system.mem_ctrls.bytes_read::cpu3.data        1006336                       # Number of bytes read from this memory
system.mem_ctrls.bytes_read::tsunami.ide         4032                       # Number of bytes read from this memory
system.mem_ctrls.bytes_read::total           27649504                       # Number of bytes read from this memory
system.mem_ctrls.bytes_inst_read::cpu0.inst       742144                       # Number of instructions bytes read from this memory
system.mem_ctrls.bytes_inst_read::cpu1.inst        19328                       # Number of instructions bytes read from this memory
system.mem_ctrls.bytes_inst_read::cpu2.inst       591936                       # Number of instructions bytes read from this memory
system.mem_ctrls.bytes_inst_read::cpu3.inst       273824                       # Number of instructions bytes read from this memory
system.mem_ctrls.bytes_inst_read::total       1627232                       # Number of instructions bytes read from this memory
system.mem_ctrls.bytes_written::writebacks     20971424                       # Number of bytes written to this memory
system.mem_ctrls.bytes_written::total        20971424                       # Number of bytes written to this memory
system.mem_ctrls.num_reads::cpu0.inst           23192                       # Number of read requests responded to by this memory
system.mem_ctrls.num_reads::cpu0.data          671526                       # Number of read requests responded to by this memory
system.mem_ctrls.num_reads::cpu1.inst             604                       # Number of read requests responded to by this memory
system.mem_ctrls.num_reads::cpu1.data           10214                       # Number of read requests responded to by this memory
system.mem_ctrls.num_reads::cpu2.inst           18498                       # Number of read requests responded to by this memory
system.mem_ctrls.num_reads::cpu2.data           99882                       # Number of read requests responded to by this memory
system.mem_ctrls.num_reads::cpu3.inst            8557                       # Number of read requests responded to by this memory
system.mem_ctrls.num_reads::cpu3.data           31448                       # Number of read requests responded to by this memory
system.mem_ctrls.num_reads::tsunami.ide           126                       # Number of read requests responded to by this memory
system.mem_ctrls.num_reads::total              864047                       # Number of read requests responded to by this memory
system.mem_ctrls.num_writes::writebacks        655357                       # Number of write requests responded to by this memory
system.mem_ctrls.num_writes::total             655357                       # Number of write requests responded to by this memory
system.mem_ctrls.bw_read::cpu0.inst            302267                       # Total read bandwidth from this memory (bytes/s)
system.mem_ctrls.bw_read::cpu0.data           8752175                       # Total read bandwidth from this memory (bytes/s)
system.mem_ctrls.bw_read::cpu1.inst              7872                       # Total read bandwidth from this memory (bytes/s)
system.mem_ctrls.bw_read::cpu1.data            133122                       # Total read bandwidth from this memory (bytes/s)
system.mem_ctrls.bw_read::cpu2.inst            241089                       # Total read bandwidth from this memory (bytes/s)
system.mem_ctrls.bw_read::cpu2.data           1301788                       # Total read bandwidth from this memory (bytes/s)
system.mem_ctrls.bw_read::cpu3.inst            111526                       # Total read bandwidth from this memory (bytes/s)
system.mem_ctrls.bw_read::cpu3.data            409870                       # Total read bandwidth from this memory (bytes/s)
system.mem_ctrls.bw_read::tsunami.ide            1642                       # Total read bandwidth from this memory (bytes/s)
system.mem_ctrls.bw_read::total              11261352                       # Total read bandwidth from this memory (bytes/s)
system.mem_ctrls.bw_inst_read::cpu0.inst       302267                       # Instruction read bandwidth from this memory (bytes/s)
system.mem_ctrls.bw_inst_read::cpu1.inst         7872                       # Instruction read bandwidth from this memory (bytes/s)
system.mem_ctrls.bw_inst_read::cpu2.inst       241089                       # Instruction read bandwidth from this memory (bytes/s)
system.mem_ctrls.bw_inst_read::cpu3.inst       111526                       # Instruction read bandwidth from this memory (bytes/s)
system.mem_ctrls.bw_inst_read::total           662754                       # Instruction read bandwidth from this memory (bytes/s)
system.mem_ctrls.bw_write::writebacks         8541440                       # Write bandwidth from this memory (bytes/s)
system.mem_ctrls.bw_write::total              8541440                       # Write bandwidth from this memory (bytes/s)
system.mem_ctrls.bw_total::writebacks         8541440                       # Total bandwidth to/from this memory (bytes/s)
system.mem_ctrls.bw_total::cpu0.inst           302267                       # Total bandwidth to/from this memory (bytes/s)
system.mem_ctrls.bw_total::cpu0.data          8752175                       # Total bandwidth to/from this memory (bytes/s)
system.mem_ctrls.bw_total::cpu1.inst             7872                       # Total bandwidth to/from this memory (bytes/s)
system.mem_ctrls.bw_total::cpu1.data           133122                       # Total bandwidth to/from this memory (bytes/s)
system.mem_ctrls.bw_total::cpu2.inst           241089                       # Total bandwidth to/from this memory (bytes/s)
system.mem_ctrls.bw_total::cpu2.data          1301788                       # Total bandwidth to/from this memory (bytes/s)
system.mem_ctrls.bw_total::cpu3.inst           111526                       # Total bandwidth to/from this memory (bytes/s)
system.mem_ctrls.bw_total::cpu3.data           409870                       # Total bandwidth to/from this memory (bytes/s)
system.mem_ctrls.bw_total::tsunami.ide           1642                       # Total bandwidth to/from this memory (bytes/s)
system.mem_ctrls.bw_total::total             19802791                       # Total bandwidth to/from this memory (bytes/s)
system.mem_ctrls.readReqs                      864047                       # Number of read requests accepted
system.mem_ctrls.writeReqs                     655357                       # Number of write requests accepted
system.mem_ctrls.readBursts                    864047                       # Number of DRAM read bursts, including those serviced by the write queue
system.mem_ctrls.writeBursts                   655357                       # Number of DRAM write bursts, including those merged in the write queue
system.mem_ctrls.bytesReadDRAM               55251904                       # Total number of bytes read from DRAM
system.mem_ctrls.bytesReadWrQ                   47104                       # Total number of bytes read from write queue
system.mem_ctrls.bytesWritten                32473472                       # Total number of bytes written to DRAM
system.mem_ctrls.bytesReadSys                27649504                       # Total read bytes from the system interface side
system.mem_ctrls.bytesWrittenSys             20971424                       # Total written bytes from the system interface side
system.mem_ctrls.servicedByWrQ                    736                       # Number of DRAM read bursts serviced by the write queue
system.mem_ctrls.mergedWrBursts                147929                       # Number of DRAM write bursts merged with an existing one
system.mem_ctrls.neitherReadNorWriteReqs            0                       # Number of requests that are neither read nor write
system.mem_ctrls.perBankRdBursts::0             52756                       # Per bank write bursts
system.mem_ctrls.perBankRdBursts::1             53745                       # Per bank write bursts
system.mem_ctrls.perBankRdBursts::2             53569                       # Per bank write bursts
system.mem_ctrls.perBankRdBursts::3             51640                       # Per bank write bursts
system.mem_ctrls.perBankRdBursts::4             57701                       # Per bank write bursts
system.mem_ctrls.perBankRdBursts::5             56448                       # Per bank write bursts
system.mem_ctrls.perBankRdBursts::6             58405                       # Per bank write bursts
system.mem_ctrls.perBankRdBursts::7             53814                       # Per bank write bursts
system.mem_ctrls.perBankRdBursts::8             53796                       # Per bank write bursts
system.mem_ctrls.perBankRdBursts::9             52940                       # Per bank write bursts
system.mem_ctrls.perBankRdBursts::10            52414                       # Per bank write bursts
system.mem_ctrls.perBankRdBursts::11            52851                       # Per bank write bursts
system.mem_ctrls.perBankRdBursts::12            52576                       # Per bank write bursts
system.mem_ctrls.perBankRdBursts::13            52246                       # Per bank write bursts
system.mem_ctrls.perBankRdBursts::14            52768                       # Per bank write bursts
system.mem_ctrls.perBankRdBursts::15            55642                       # Per bank write bursts
system.mem_ctrls.perBankWrBursts::0             33099                       # Per bank write bursts
system.mem_ctrls.perBankWrBursts::1             33475                       # Per bank write bursts
system.mem_ctrls.perBankWrBursts::2             31921                       # Per bank write bursts
system.mem_ctrls.perBankWrBursts::3             31434                       # Per bank write bursts
system.mem_ctrls.perBankWrBursts::4             33146                       # Per bank write bursts
system.mem_ctrls.perBankWrBursts::5             31946                       # Per bank write bursts
system.mem_ctrls.perBankWrBursts::6             31322                       # Per bank write bursts
system.mem_ctrls.perBankWrBursts::7             31404                       # Per bank write bursts
system.mem_ctrls.perBankWrBursts::8             30514                       # Per bank write bursts
system.mem_ctrls.perBankWrBursts::9             30616                       # Per bank write bursts
system.mem_ctrls.perBankWrBursts::10            30326                       # Per bank write bursts
system.mem_ctrls.perBankWrBursts::11            30387                       # Per bank write bursts
system.mem_ctrls.perBankWrBursts::12            30519                       # Per bank write bursts
system.mem_ctrls.perBankWrBursts::13            31356                       # Per bank write bursts
system.mem_ctrls.perBankWrBursts::14            32542                       # Per bank write bursts
system.mem_ctrls.perBankWrBursts::15            33391                       # Per bank write bursts
system.mem_ctrls.numRdRetry                         0                       # Number of times read queue was full causing retry
system.mem_ctrls.numWrRetry                        47                       # Number of times write queue was full causing retry
system.mem_ctrls.totGap                  2455256119500                       # Total gap between requests
system.mem_ctrls.readPktSize::0                     0                       # Read request sizes (log2)
system.mem_ctrls.readPktSize::1                     0                       # Read request sizes (log2)
system.mem_ctrls.readPktSize::2                     0                       # Read request sizes (log2)
system.mem_ctrls.readPktSize::3                     0                       # Read request sizes (log2)
system.mem_ctrls.readPktSize::4                     0                       # Read request sizes (log2)
system.mem_ctrls.readPktSize::5                864047                       # Read request sizes (log2)
system.mem_ctrls.readPktSize::6                     0                       # Read request sizes (log2)
system.mem_ctrls.writePktSize::0                    0                       # Write request sizes (log2)
system.mem_ctrls.writePktSize::1                    0                       # Write request sizes (log2)
system.mem_ctrls.writePktSize::2                    0                       # Write request sizes (log2)
system.mem_ctrls.writePktSize::3                    0                       # Write request sizes (log2)
system.mem_ctrls.writePktSize::4                    0                       # Write request sizes (log2)
system.mem_ctrls.writePktSize::5               655357                       # Write request sizes (log2)
system.mem_ctrls.writePktSize::6                    0                       # Write request sizes (log2)
system.mem_ctrls.rdQLenPdf::0                  861063                       # What read queue length does an incoming req see
system.mem_ctrls.rdQLenPdf::1                    1988                       # What read queue length does an incoming req see
system.mem_ctrls.rdQLenPdf::2                     130                       # What read queue length does an incoming req see
system.mem_ctrls.rdQLenPdf::3                       8                       # What read queue length does an incoming req see
system.mem_ctrls.rdQLenPdf::4                       8                       # What read queue length does an incoming req see
system.mem_ctrls.rdQLenPdf::5                       8                       # What read queue length does an incoming req see
system.mem_ctrls.rdQLenPdf::6                       9                       # What read queue length does an incoming req see
system.mem_ctrls.rdQLenPdf::7                      13                       # What read queue length does an incoming req see
system.mem_ctrls.rdQLenPdf::8                      18                       # What read queue length does an incoming req see
system.mem_ctrls.rdQLenPdf::9                      22                       # What read queue length does an incoming req see
system.mem_ctrls.rdQLenPdf::10                     10                       # What read queue length does an incoming req see
system.mem_ctrls.rdQLenPdf::11                      6                       # What read queue length does an incoming req see
system.mem_ctrls.rdQLenPdf::12                      4                       # What read queue length does an incoming req see
system.mem_ctrls.rdQLenPdf::13                      4                       # What read queue length does an incoming req see
system.mem_ctrls.rdQLenPdf::14                      4                       # What read queue length does an incoming req see
system.mem_ctrls.rdQLenPdf::15                      3                       # What read queue length does an incoming req see
system.mem_ctrls.rdQLenPdf::16                      4                       # What read queue length does an incoming req see
system.mem_ctrls.rdQLenPdf::17                      3                       # What read queue length does an incoming req see
system.mem_ctrls.rdQLenPdf::18                      2                       # What read queue length does an incoming req see
system.mem_ctrls.rdQLenPdf::19                      2                       # What read queue length does an incoming req see
system.mem_ctrls.rdQLenPdf::20                      2                       # What read queue length does an incoming req see
system.mem_ctrls.rdQLenPdf::21                      0                       # What read queue length does an incoming req see
system.mem_ctrls.rdQLenPdf::22                      0                       # What read queue length does an incoming req see
system.mem_ctrls.rdQLenPdf::23                      0                       # What read queue length does an incoming req see
system.mem_ctrls.rdQLenPdf::24                      0                       # What read queue length does an incoming req see
system.mem_ctrls.rdQLenPdf::25                      0                       # What read queue length does an incoming req see
system.mem_ctrls.rdQLenPdf::26                      0                       # What read queue length does an incoming req see
system.mem_ctrls.rdQLenPdf::27                      0                       # What read queue length does an incoming req see
system.mem_ctrls.rdQLenPdf::28                      0                       # What read queue length does an incoming req see
system.mem_ctrls.rdQLenPdf::29                      0                       # What read queue length does an incoming req see
system.mem_ctrls.rdQLenPdf::30                      0                       # What read queue length does an incoming req see
system.mem_ctrls.rdQLenPdf::31                      0                       # What read queue length does an incoming req see
system.mem_ctrls.wrQLenPdf::0                       1                       # What write queue length does an incoming req see
system.mem_ctrls.wrQLenPdf::1                       1                       # What write queue length does an incoming req see
system.mem_ctrls.wrQLenPdf::2                       1                       # What write queue length does an incoming req see
system.mem_ctrls.wrQLenPdf::3                       1                       # What write queue length does an incoming req see
system.mem_ctrls.wrQLenPdf::4                       1                       # What write queue length does an incoming req see
system.mem_ctrls.wrQLenPdf::5                       1                       # What write queue length does an incoming req see
system.mem_ctrls.wrQLenPdf::6                       1                       # What write queue length does an incoming req see
system.mem_ctrls.wrQLenPdf::7                       1                       # What write queue length does an incoming req see
system.mem_ctrls.wrQLenPdf::8                       1                       # What write queue length does an incoming req see
system.mem_ctrls.wrQLenPdf::9                       1                       # What write queue length does an incoming req see
system.mem_ctrls.wrQLenPdf::10                      1                       # What write queue length does an incoming req see
system.mem_ctrls.wrQLenPdf::11                      1                       # What write queue length does an incoming req see
system.mem_ctrls.wrQLenPdf::12                      1                       # What write queue length does an incoming req see
system.mem_ctrls.wrQLenPdf::13                      1                       # What write queue length does an incoming req see
system.mem_ctrls.wrQLenPdf::14                      1                       # What write queue length does an incoming req see
system.mem_ctrls.wrQLenPdf::15                   6397                       # What write queue length does an incoming req see
system.mem_ctrls.wrQLenPdf::16                   7480                       # What write queue length does an incoming req see
system.mem_ctrls.wrQLenPdf::17                  30370                       # What write queue length does an incoming req see
system.mem_ctrls.wrQLenPdf::18                  30173                       # What write queue length does an incoming req see
system.mem_ctrls.wrQLenPdf::19                  30030                       # What write queue length does an incoming req see
system.mem_ctrls.wrQLenPdf::20                  30393                       # What write queue length does an incoming req see
system.mem_ctrls.wrQLenPdf::21                  30445                       # What write queue length does an incoming req see
system.mem_ctrls.wrQLenPdf::22                  30640                       # What write queue length does an incoming req see
system.mem_ctrls.wrQLenPdf::23                  32005                       # What write queue length does an incoming req see
system.mem_ctrls.wrQLenPdf::24                  30807                       # What write queue length does an incoming req see
system.mem_ctrls.wrQLenPdf::25                  30809                       # What write queue length does an incoming req see
system.mem_ctrls.wrQLenPdf::26                  31756                       # What write queue length does an incoming req see
system.mem_ctrls.wrQLenPdf::27                  30525                       # What write queue length does an incoming req see
system.mem_ctrls.wrQLenPdf::28                  30539                       # What write queue length does an incoming req see
system.mem_ctrls.wrQLenPdf::29                  30355                       # What write queue length does an incoming req see
system.mem_ctrls.wrQLenPdf::30                  30227                       # What write queue length does an incoming req see
system.mem_ctrls.wrQLenPdf::31                  29776                       # What write queue length does an incoming req see
system.mem_ctrls.wrQLenPdf::32                  29697                       # What write queue length does an incoming req see
system.mem_ctrls.wrQLenPdf::33                    330                       # What write queue length does an incoming req see
system.mem_ctrls.wrQLenPdf::34                    358                       # What write queue length does an incoming req see
system.mem_ctrls.wrQLenPdf::35                    265                       # What write queue length does an incoming req see
system.mem_ctrls.wrQLenPdf::36                    253                       # What write queue length does an incoming req see
system.mem_ctrls.wrQLenPdf::37                    260                       # What write queue length does an incoming req see
system.mem_ctrls.wrQLenPdf::38                    260                       # What write queue length does an incoming req see
system.mem_ctrls.wrQLenPdf::39                    249                       # What write queue length does an incoming req see
system.mem_ctrls.wrQLenPdf::40                    223                       # What write queue length does an incoming req see
system.mem_ctrls.wrQLenPdf::41                    239                       # What write queue length does an incoming req see
system.mem_ctrls.wrQLenPdf::42                    215                       # What write queue length does an incoming req see
system.mem_ctrls.wrQLenPdf::43                    193                       # What write queue length does an incoming req see
system.mem_ctrls.wrQLenPdf::44                    165                       # What write queue length does an incoming req see
system.mem_ctrls.wrQLenPdf::45                    163                       # What write queue length does an incoming req see
system.mem_ctrls.wrQLenPdf::46                    133                       # What write queue length does an incoming req see
system.mem_ctrls.wrQLenPdf::47                    144                       # What write queue length does an incoming req see
system.mem_ctrls.wrQLenPdf::48                    115                       # What write queue length does an incoming req see
system.mem_ctrls.wrQLenPdf::49                    102                       # What write queue length does an incoming req see
system.mem_ctrls.wrQLenPdf::50                    103                       # What write queue length does an incoming req see
system.mem_ctrls.wrQLenPdf::51                    124                       # What write queue length does an incoming req see
system.mem_ctrls.wrQLenPdf::52                    113                       # What write queue length does an incoming req see
system.mem_ctrls.wrQLenPdf::53                     85                       # What write queue length does an incoming req see
system.mem_ctrls.wrQLenPdf::54                     65                       # What write queue length does an incoming req see
system.mem_ctrls.wrQLenPdf::55                     70                       # What write queue length does an incoming req see
system.mem_ctrls.wrQLenPdf::56                     73                       # What write queue length does an incoming req see
system.mem_ctrls.wrQLenPdf::57                     88                       # What write queue length does an incoming req see
system.mem_ctrls.wrQLenPdf::58                    123                       # What write queue length does an incoming req see
system.mem_ctrls.wrQLenPdf::59                    138                       # What write queue length does an incoming req see
system.mem_ctrls.wrQLenPdf::60                    160                       # What write queue length does an incoming req see
system.mem_ctrls.wrQLenPdf::61                     69                       # What write queue length does an incoming req see
system.mem_ctrls.wrQLenPdf::62                     61                       # What write queue length does an incoming req see
system.mem_ctrls.wrQLenPdf::63                     50                       # What write queue length does an incoming req see
system.mem_ctrls.bytesPerActivate::samples       222653                       # Bytes accessed per row activation
system.mem_ctrls.bytesPerActivate::mean    393.999847                       # Bytes accessed per row activation
system.mem_ctrls.bytesPerActivate::gmean   221.279641                       # Bytes accessed per row activation
system.mem_ctrls.bytesPerActivate::stdev   387.930926                       # Bytes accessed per row activation
system.mem_ctrls.bytesPerActivate::0-127        73504     33.01%     33.01% # Bytes accessed per row activation
system.mem_ctrls.bytesPerActivate::128-255        49831     22.38%     55.39% # Bytes accessed per row activation
system.mem_ctrls.bytesPerActivate::256-383        16402      7.37%     62.76% # Bytes accessed per row activation
system.mem_ctrls.bytesPerActivate::384-511        10429      4.68%     67.44% # Bytes accessed per row activation
system.mem_ctrls.bytesPerActivate::512-639         7787      3.50%     70.94% # Bytes accessed per row activation
system.mem_ctrls.bytesPerActivate::640-767         5865      2.63%     73.58% # Bytes accessed per row activation
system.mem_ctrls.bytesPerActivate::768-895         5689      2.56%     76.13% # Bytes accessed per row activation
system.mem_ctrls.bytesPerActivate::896-1023         4186      1.88%     78.01% # Bytes accessed per row activation
system.mem_ctrls.bytesPerActivate::1024-1151        48960     21.99%    100.00% # Bytes accessed per row activation
system.mem_ctrls.bytesPerActivate::total       222653                       # Bytes accessed per row activation
system.mem_ctrls.rdPerTurnAround::samples        29502                       # Reads before turning the bus around for writes
system.mem_ctrls.rdPerTurnAround::mean      29.258457                       # Reads before turning the bus around for writes
system.mem_ctrls.rdPerTurnAround::stdev    527.509666                       # Reads before turning the bus around for writes
system.mem_ctrls.rdPerTurnAround::0-4095        29499     99.99%     99.99% # Reads before turning the bus around for writes
system.mem_ctrls.rdPerTurnAround::20480-24575            1      0.00%     99.99% # Reads before turning the bus around for writes
system.mem_ctrls.rdPerTurnAround::57344-61439            1      0.00%    100.00% # Reads before turning the bus around for writes
system.mem_ctrls.rdPerTurnAround::65536-69631            1      0.00%    100.00% # Reads before turning the bus around for writes
system.mem_ctrls.rdPerTurnAround::total         29502                       # Reads before turning the bus around for writes
system.mem_ctrls.wrPerTurnAround::samples        29502                       # Writes before turning the bus around for reads
system.mem_ctrls.wrPerTurnAround::mean      17.198766                       # Writes before turning the bus around for reads
system.mem_ctrls.wrPerTurnAround::gmean     16.866586                       # Writes before turning the bus around for reads
system.mem_ctrls.wrPerTurnAround::stdev      5.117343                       # Writes before turning the bus around for reads
system.mem_ctrls.wrPerTurnAround::16-19         28292     95.90%     95.90% # Writes before turning the bus around for reads
system.mem_ctrls.wrPerTurnAround::20-23            65      0.22%     96.12% # Writes before turning the bus around for reads
system.mem_ctrls.wrPerTurnAround::24-27           428      1.45%     97.57% # Writes before turning the bus around for reads
system.mem_ctrls.wrPerTurnAround::28-31            57      0.19%     97.76% # Writes before turning the bus around for reads
system.mem_ctrls.wrPerTurnAround::32-35           241      0.82%     98.58% # Writes before turning the bus around for reads
system.mem_ctrls.wrPerTurnAround::36-39            77      0.26%     98.84% # Writes before turning the bus around for reads
system.mem_ctrls.wrPerTurnAround::40-43           203      0.69%     99.53% # Writes before turning the bus around for reads
system.mem_ctrls.wrPerTurnAround::44-47            21      0.07%     99.60% # Writes before turning the bus around for reads
system.mem_ctrls.wrPerTurnAround::48-51             9      0.03%     99.63% # Writes before turning the bus around for reads
system.mem_ctrls.wrPerTurnAround::52-55            11      0.04%     99.67% # Writes before turning the bus around for reads
system.mem_ctrls.wrPerTurnAround::56-59             2      0.01%     99.67% # Writes before turning the bus around for reads
system.mem_ctrls.wrPerTurnAround::60-63             4      0.01%     99.69% # Writes before turning the bus around for reads
system.mem_ctrls.wrPerTurnAround::64-67            10      0.03%     99.72% # Writes before turning the bus around for reads
system.mem_ctrls.wrPerTurnAround::68-71            15      0.05%     99.77% # Writes before turning the bus around for reads
system.mem_ctrls.wrPerTurnAround::72-75            10      0.03%     99.81% # Writes before turning the bus around for reads
system.mem_ctrls.wrPerTurnAround::76-79             8      0.03%     99.83% # Writes before turning the bus around for reads
system.mem_ctrls.wrPerTurnAround::80-83            14      0.05%     99.88% # Writes before turning the bus around for reads
system.mem_ctrls.wrPerTurnAround::84-87             1      0.00%     99.88% # Writes before turning the bus around for reads
system.mem_ctrls.wrPerTurnAround::88-91            10      0.03%     99.92% # Writes before turning the bus around for reads
system.mem_ctrls.wrPerTurnAround::92-95             6      0.02%     99.94% # Writes before turning the bus around for reads
system.mem_ctrls.wrPerTurnAround::96-99             6      0.02%     99.96% # Writes before turning the bus around for reads
system.mem_ctrls.wrPerTurnAround::100-103            4      0.01%     99.97% # Writes before turning the bus around for reads
system.mem_ctrls.wrPerTurnAround::104-107            1      0.00%     99.98% # Writes before turning the bus around for reads
system.mem_ctrls.wrPerTurnAround::108-111            1      0.00%     99.98% # Writes before turning the bus around for reads
system.mem_ctrls.wrPerTurnAround::112-115            2      0.01%     99.99% # Writes before turning the bus around for reads
system.mem_ctrls.wrPerTurnAround::116-119            1      0.00%     99.99% # Writes before turning the bus around for reads
system.mem_ctrls.wrPerTurnAround::128-131            1      0.00%     99.99% # Writes before turning the bus around for reads
system.mem_ctrls.wrPerTurnAround::136-139            1      0.00%    100.00% # Writes before turning the bus around for reads
system.mem_ctrls.wrPerTurnAround::140-143            1      0.00%    100.00% # Writes before turning the bus around for reads
system.mem_ctrls.wrPerTurnAround::total         29502                       # Writes before turning the bus around for reads
system.mem_ctrls.totQLat                  14768733470                       # Total ticks spent queuing
system.mem_ctrls.totMemAccLat             30955814720                       # Total ticks spent from burst creation until serviced by the DRAM
system.mem_ctrls.totBusLat                 4316555000                       # Total ticks spent in databus transfers
system.mem_ctrls.avgQLat                     17107.08                       # Average queueing delay per DRAM burst
system.mem_ctrls.avgBusLat                    5000.00                       # Average bus latency per DRAM burst
system.mem_ctrls.avgMemAccLat                35857.08                       # Average memory access latency per DRAM burst
system.mem_ctrls.avgRdBW                        22.50                       # Average DRAM read bandwidth in MiByte/s
system.mem_ctrls.avgWrBW                        13.23                       # Average achieved write bandwidth in MiByte/s
system.mem_ctrls.avgRdBWSys                     11.26                       # Average system read bandwidth in MiByte/s
system.mem_ctrls.avgWrBWSys                      8.54                       # Average system write bandwidth in MiByte/s
system.mem_ctrls.peakBW                      12800.00                       # Theoretical peak bandwidth in MiByte/s
system.mem_ctrls.busUtil                         0.28                       # Data bus utilization in percentage
system.mem_ctrls.busUtilRead                     0.18                       # Data bus utilization in percentage for reads
system.mem_ctrls.busUtilWrite                    0.10                       # Data bus utilization in percentage for writes
system.mem_ctrls.avgRdQLen                       1.04                       # Average read queue length when enqueuing
system.mem_ctrls.avgWrQLen                      27.21                       # Average write queue length when enqueuing
system.mem_ctrls.readRowHits                   758871                       # Number of row buffer hits during reads
system.mem_ctrls.writeRowHits                  389184                       # Number of row buffer hits during writes
system.mem_ctrls.readRowHitRate                 87.90                       # Row buffer hit rate for reads
system.mem_ctrls.writeRowHitRate                76.70                       # Row buffer hit rate for writes
system.mem_ctrls.avgGap                    1615933.69                       # Average gap between requests
system.mem_ctrls.pageHitRate                    83.75                       # Row buffer hit rate, read and write combined
system.mem_ctrls_0.actEnergy                804178200                       # Energy for activate commands per rank (pJ)
system.mem_ctrls_0.preEnergy                427427055                       # Energy for precharge commands per rank (pJ)
system.mem_ctrls_0.readEnergy              3127876920                       # Energy for read commands per rank (pJ)
system.mem_ctrls_0.writeEnergy             1345439340                       # Energy for write commands per rank (pJ)
system.mem_ctrls_0.refreshEnergy         14115207600.000002                       # Energy for refresh commands per rank (pJ)
system.mem_ctrls_0.actBackEnergy          16962945780                       # Energy for active background per rank (pJ)
system.mem_ctrls_0.preBackEnergy            774191040                       # Energy for precharge background per rank (pJ)
system.mem_ctrls_0.actPowerDownEnergy     33267522180                       # Energy for active power-down per rank (pJ)
system.mem_ctrls_0.prePowerDownEnergy     15497681280                       # Energy for precharge power-down per rank (pJ)
system.mem_ctrls_0.selfRefreshEnergy     554655816660                       # Energy for self refresh per rank (pJ)
system.mem_ctrls_0.totalEnergy           640982429445                       # Total energy per rank (pJ)
system.mem_ctrls_0.averagePower            261.065386                       # Core power per rank (mW)
system.mem_ctrls_0.totalIdleTime         2416031180000                       # Total Idle time Per DRAM Rank
system.mem_ctrls_0.memoryStateTime::IDLE   1246378000                       # Time in different power states
system.mem_ctrls_0.memoryStateTime::REF    5993352000                       # Time in different power states
system.mem_ctrls_0.memoryStateTime::SREF 2302717889750                       # Time in different power states
system.mem_ctrls_0.memoryStateTime::PRE_PDN  40358440500                       # Time in different power states
system.mem_ctrls_0.memoryStateTime::ACT   31985245750                       # Time in different power states
system.mem_ctrls_0.memoryStateTime::ACT_PDN  72954974500                       # Time in different power states
system.mem_ctrls_1.actEnergy                785571360                       # Energy for activate commands per rank (pJ)
system.mem_ctrls_1.preEnergy                417541080                       # Energy for precharge commands per rank (pJ)
system.mem_ctrls_1.readEnergy              3036163620                       # Energy for read commands per rank (pJ)
system.mem_ctrls_1.writeEnergy             1303178220                       # Energy for write commands per rank (pJ)
system.mem_ctrls_1.refreshEnergy         14525787120.000002                       # Energy for refresh commands per rank (pJ)
system.mem_ctrls_1.actBackEnergy          17091652920                       # Energy for active background per rank (pJ)
system.mem_ctrls_1.preBackEnergy            787332000                       # Energy for precharge background per rank (pJ)
system.mem_ctrls_1.actPowerDownEnergy     33225797610                       # Energy for active power-down per rank (pJ)
system.mem_ctrls_1.prePowerDownEnergy     16674121440                       # Energy for precharge power-down per rank (pJ)
system.mem_ctrls_1.selfRefreshEnergy     554012339520                       # Energy for self refresh per rank (pJ)
system.mem_ctrls_1.totalEnergy           641863857510                       # Total energy per rank (pJ)
system.mem_ctrls_1.averagePower            261.424383                       # Core power per rank (mW)
system.mem_ctrls_1.totalIdleTime         2415710822749                       # Total Idle time Per DRAM Rank
system.mem_ctrls_1.memoryStateTime::IDLE   1287600000                       # Time in different power states
system.mem_ctrls_1.memoryStateTime::REF    6168604000                       # Time in different power states
system.mem_ctrls_1.memoryStateTime::SREF 2299428753750                       # Time in different power states
system.mem_ctrls_1.memoryStateTime::PRE_PDN  43422210750                       # Time in different power states
system.mem_ctrls_1.memoryStateTime::ACT   32085481001                       # Time in different power states
system.mem_ctrls_1.memoryStateTime::ACT_PDN  72863630999                       # Time in different power states
system.pwrStateResidencyTicks::UNDEFINED 2455256280500                       # Cumulative time (in ticks) in various power states
system.bridge.pwrStateResidencyTicks::UNDEFINED 2455256280500                       # Cumulative time (in ticks) in various power states
system.cpu_voltage_domain.voltage                   1                       # Voltage in Volts
system.cpu_clk_domain.clock                       500                       # Clock period in ticks
system.cpu0.dtb.fetch_hits                          0                       # ITB hits
system.cpu0.dtb.fetch_misses                        0                       # ITB misses
system.cpu0.dtb.fetch_acv                           0                       # ITB acv
system.cpu0.dtb.fetch_accesses                      0                       # ITB accesses
system.cpu0.dtb.read_hits                    11553715                       # DTB read hits
system.cpu0.dtb.read_misses                      2643                       # DTB read misses
system.cpu0.dtb.read_acv                            0                       # DTB read access violations
system.cpu0.dtb.read_accesses                  208897                       # DTB read accesses
system.cpu0.dtb.write_hits                    5656967                       # DTB write hits
system.cpu0.dtb.write_misses                      389                       # DTB write misses
system.cpu0.dtb.write_acv                          34                       # DTB write access violations
system.cpu0.dtb.write_accesses                  91736                       # DTB write accesses
system.cpu0.dtb.data_hits                    17210682                       # DTB hits
system.cpu0.dtb.data_misses                      3032                       # DTB misses
system.cpu0.dtb.data_acv                           34                       # DTB access violations
system.cpu0.dtb.data_accesses                  300633                       # DTB accesses
system.cpu0.itb.fetch_hits                    2366874                       # ITB hits
system.cpu0.itb.fetch_misses                     1106                       # ITB misses
system.cpu0.itb.fetch_acv                           0                       # ITB acv
system.cpu0.itb.fetch_accesses                2367980                       # ITB accesses
system.cpu0.itb.read_hits                           0                       # DTB read hits
system.cpu0.itb.read_misses                         0                       # DTB read misses
system.cpu0.itb.read_acv                            0                       # DTB read access violations
system.cpu0.itb.read_accesses                       0                       # DTB read accesses
system.cpu0.itb.write_hits                          0                       # DTB write hits
system.cpu0.itb.write_misses                        0                       # DTB write misses
system.cpu0.itb.write_acv                           0                       # DTB write access violations
system.cpu0.itb.write_accesses                      0                       # DTB write accesses
system.cpu0.itb.data_hits                           0                       # DTB hits
system.cpu0.itb.data_misses                         0                       # DTB misses
system.cpu0.itb.data_acv                            0                       # DTB access violations
system.cpu0.itb.data_accesses                       0                       # DTB accesses
system.cpu0.numPwrStateTransitions              14104                       # Number of power state transitions
system.cpu0.pwrStateClkGateDist::samples         7052                       # Distribution of time spent in the clock gated state
system.cpu0.pwrStateClkGateDist::mean    321116633.153715                       # Distribution of time spent in the clock gated state
system.cpu0.pwrStateClkGateDist::stdev   450070843.980179                       # Distribution of time spent in the clock gated state
system.cpu0.pwrStateClkGateDist::1000-5e+10         7052    100.00%    100.00% # Distribution of time spent in the clock gated state
system.cpu0.pwrStateClkGateDist::min_value         7000                       # Distribution of time spent in the clock gated state
system.cpu0.pwrStateClkGateDist::max_value   2000000000                       # Distribution of time spent in the clock gated state
system.cpu0.pwrStateClkGateDist::total           7052                       # Distribution of time spent in the clock gated state
system.cpu0.pwrStateResidencyTicks::ON   190741783500                       # Cumulative time (in ticks) in various power states
system.cpu0.pwrStateResidencyTicks::CLK_GATED 2264514497000                       # Cumulative time (in ticks) in various power states
system.cpu0.numCycles                      4910512561                       # number of cpu cycles simulated
system.cpu0.numWorkItemsStarted                     0                       # number of work items this cpu started
system.cpu0.numWorkItemsCompleted                   0                       # number of work items this cpu completed
system.cpu0.kern.inst.arm                           0                       # number of arm instructions executed
system.cpu0.kern.inst.quiesce                    7052                       # number of quiesce instructions executed
system.cpu0.kern.callpal::cserve                    1      0.00%      0.00% # number of callpals executed
system.cpu0.kern.callpal::wripir                 1050      0.83%      0.83% # number of callpals executed
system.cpu0.kern.callpal::wrmces                    1      0.00%      0.83% # number of callpals executed
system.cpu0.kern.callpal::wrfen                     1      0.00%      0.83% # number of callpals executed
system.cpu0.kern.callpal::wrvptptr                  1      0.00%      0.83% # number of callpals executed
system.cpu0.kern.callpal::swpctx                 2030      1.60%      2.43% # number of callpals executed
system.cpu0.kern.callpal::tbi                       9      0.01%      2.43% # number of callpals executed
system.cpu0.kern.callpal::wrent                     7      0.01%      2.44% # number of callpals executed
system.cpu0.kern.callpal::swpipl               114804     90.29%     92.73% # number of callpals executed
system.cpu0.kern.callpal::rdps                   5221      4.11%     96.83% # number of callpals executed
system.cpu0.kern.callpal::wrkgp                     1      0.00%     96.83% # number of callpals executed
system.cpu0.kern.callpal::wrusp                     4      0.00%     96.84% # number of callpals executed
system.cpu0.kern.callpal::rdusp                     4      0.00%     96.84% # number of callpals executed
system.cpu0.kern.callpal::whami                     2      0.00%     96.84% # number of callpals executed
system.cpu0.kern.callpal::rti                    3840      3.02%     99.86% # number of callpals executed
system.cpu0.kern.callpal::callsys                 131      0.10%     99.97% # number of callpals executed
system.cpu0.kern.callpal::imb                      44      0.03%    100.00% # number of callpals executed
system.cpu0.kern.callpal::total                127151                       # number of callpals executed
system.cpu0.kern.inst.hwrei                    134565                       # number of hwrei instructions executed
system.cpu0.kern.mode_switch::kernel             5752                       # number of protection mode switches
system.cpu0.kern.mode_switch::user                472                       # number of protection mode switches
system.cpu0.kern.mode_switch::idle                  0                       # number of protection mode switches
system.cpu0.kern.mode_good::kernel                471                      
system.cpu0.kern.mode_good::user                  472                      
system.cpu0.kern.mode_good::idle                    0                      
system.cpu0.kern.mode_switch_good::kernel     0.081885                       # fraction of useful protection mode switches
system.cpu0.kern.mode_switch_good::user             1                       # fraction of useful protection mode switches
system.cpu0.kern.mode_switch_good::idle           nan                       # fraction of useful protection mode switches
system.cpu0.kern.mode_switch_good::total     0.151510                       # fraction of useful protection mode switches
system.cpu0.kern.mode_ticks::kernel      2452651802000     99.89%     99.89% # number of ticks spent at the given mode
system.cpu0.kern.mode_ticks::user          2603266500      0.11%    100.00% # number of ticks spent at the given mode
system.cpu0.kern.mode_ticks::idle                   0      0.00%    100.00% # number of ticks spent at the given mode
system.cpu0.kern.swap_context                    2031                       # number of times the context was actually changed
system.cpu0.kern.ipl_count::0                   46588     38.22%     38.22% # number of times we switched to this ipl
system.cpu0.kern.ipl_count::21                     11      0.01%     38.23% # number of times we switched to this ipl
system.cpu0.kern.ipl_count::22                   2474      2.03%     40.26% # number of times we switched to this ipl
system.cpu0.kern.ipl_count::30                    757      0.62%     40.88% # number of times we switched to this ipl
system.cpu0.kern.ipl_count::31                  72055     59.12%    100.00% # number of times we switched to this ipl
system.cpu0.kern.ipl_count::total              121885                       # number of times we switched to this ipl
system.cpu0.kern.ipl_good::0                    46447     48.70%     48.70% # number of times we switched to this ipl from a different ipl
system.cpu0.kern.ipl_good::21                      11      0.01%     48.71% # number of times we switched to this ipl from a different ipl
system.cpu0.kern.ipl_good::22                    2474      2.59%     51.30% # number of times we switched to this ipl from a different ipl
system.cpu0.kern.ipl_good::30                     757      0.79%     52.09% # number of times we switched to this ipl from a different ipl
system.cpu0.kern.ipl_good::31                   45693     47.91%    100.00% # number of times we switched to this ipl from a different ipl
system.cpu0.kern.ipl_good::total                95382                       # number of times we switched to this ipl from a different ipl
system.cpu0.kern.ipl_ticks::0            2381376183000     96.99%     96.99% # number of cycles we spent at this ipl
system.cpu0.kern.ipl_ticks::21                9516000      0.00%     96.99% # number of cycles we spent at this ipl
system.cpu0.kern.ipl_ticks::22             1314481500      0.05%     97.04% # number of cycles we spent at this ipl
system.cpu0.kern.ipl_ticks::30              817708000      0.03%     97.08% # number of cycles we spent at this ipl
system.cpu0.kern.ipl_ticks::31            71737182000      2.92%    100.00% # number of cycles we spent at this ipl
system.cpu0.kern.ipl_ticks::total        2455255070500                       # number of cycles we spent at this ipl
system.cpu0.kern.ipl_used::0                 0.996973                       # fraction of swpipl calls that actually changed the ipl
system.cpu0.kern.ipl_used::21                       1                       # fraction of swpipl calls that actually changed the ipl
system.cpu0.kern.ipl_used::22                       1                       # fraction of swpipl calls that actually changed the ipl
system.cpu0.kern.ipl_used::30                       1                       # fraction of swpipl calls that actually changed the ipl
system.cpu0.kern.ipl_used::31                0.634141                       # fraction of swpipl calls that actually changed the ipl
system.cpu0.kern.ipl_used::total             0.782557                       # fraction of swpipl calls that actually changed the ipl
system.cpu0.committedInsts                   67978239                       # Number of instructions committed
system.cpu0.committedOps                     67978239                       # Number of ops (including micro ops) committed
system.cpu0.num_int_alu_accesses             65680704                       # Number of integer alu accesses
system.cpu0.num_fp_alu_accesses                227601                       # Number of float alu accesses
system.cpu0.num_vec_alu_accesses                    0                       # Number of vector alu accesses
system.cpu0.num_func_calls                    2215500                       # number of times a function call or return occured
system.cpu0.num_conditional_control_insts      9056620                       # number of instructions that are conditional controls
system.cpu0.num_int_insts                    65680704                       # number of integer instructions
system.cpu0.num_fp_insts                       227601                       # number of float instructions
system.cpu0.num_vec_insts                           0                       # number of vector instructions
system.cpu0.num_int_register_reads           89217616                       # number of times the integer registers were read
system.cpu0.num_int_register_writes          50043189                       # number of times the integer registers were written
system.cpu0.num_fp_register_reads               76672                       # number of times the floating registers were read
system.cpu0.num_fp_register_writes              78126                       # number of times the floating registers were written
system.cpu0.num_vec_register_reads                  0                       # number of times the vector registers were read
system.cpu0.num_vec_register_writes                 0                       # number of times the vector registers were written
system.cpu0.num_mem_refs                     17235525                       # number of memory refs
system.cpu0.num_load_insts                   11567764                       # Number of load instructions
system.cpu0.num_store_insts                   5667761                       # Number of store instructions
system.cpu0.num_idle_cycles              4529028993.998156                       # Number of idle cycles
system.cpu0.num_busy_cycles              381483567.001845                       # Number of busy cycles
system.cpu0.not_idle_fraction                0.077687                       # Percentage of non-idle cycles
system.cpu0.idle_fraction                    0.922313                       # Percentage of idle cycles
system.cpu0.Branches                         11683392                       # Number of branches fetched
system.cpu0.op_class::No_OpClass              1396269      2.05%      2.05% # Class of executed instruction
system.cpu0.op_class::IntAlu                 48189533     70.89%     72.94% # Class of executed instruction
system.cpu0.op_class::IntMult                  151225      0.22%     73.16% # Class of executed instruction
system.cpu0.op_class::IntDiv                        0      0.00%     73.16% # Class of executed instruction
system.cpu0.op_class::FloatAdd                  93703      0.14%     73.30% # Class of executed instruction
system.cpu0.op_class::FloatCmp                      0      0.00%     73.30% # Class of executed instruction
system.cpu0.op_class::FloatCvt                      0      0.00%     73.30% # Class of executed instruction
system.cpu0.op_class::FloatMult                     0      0.00%     73.30% # Class of executed instruction
system.cpu0.op_class::FloatMultAcc                  0      0.00%     73.30% # Class of executed instruction
system.cpu0.op_class::FloatDiv                   1738      0.00%     73.30% # Class of executed instruction
system.cpu0.op_class::FloatMisc                     0      0.00%     73.30% # Class of executed instruction
system.cpu0.op_class::FloatSqrt                     0      0.00%     73.30% # Class of executed instruction
system.cpu0.op_class::SimdAdd                       0      0.00%     73.30% # Class of executed instruction
system.cpu0.op_class::SimdAddAcc                    0      0.00%     73.30% # Class of executed instruction
system.cpu0.op_class::SimdAlu                       0      0.00%     73.30% # Class of executed instruction
system.cpu0.op_class::SimdCmp                       0      0.00%     73.30% # Class of executed instruction
system.cpu0.op_class::SimdCvt                       0      0.00%     73.30% # Class of executed instruction
system.cpu0.op_class::SimdMisc                      0      0.00%     73.30% # Class of executed instruction
system.cpu0.op_class::SimdMult                      0      0.00%     73.30% # Class of executed instruction
system.cpu0.op_class::SimdMultAcc                   0      0.00%     73.30% # Class of executed instruction
system.cpu0.op_class::SimdShift                     0      0.00%     73.30% # Class of executed instruction
system.cpu0.op_class::SimdShiftAcc                  0      0.00%     73.30% # Class of executed instruction
system.cpu0.op_class::SimdSqrt                      0      0.00%     73.30% # Class of executed instruction
system.cpu0.op_class::SimdFloatAdd                  0      0.00%     73.30% # Class of executed instruction
system.cpu0.op_class::SimdFloatAlu                  0      0.00%     73.30% # Class of executed instruction
system.cpu0.op_class::SimdFloatCmp                  0      0.00%     73.30% # Class of executed instruction
system.cpu0.op_class::SimdFloatCvt                  0      0.00%     73.30% # Class of executed instruction
system.cpu0.op_class::SimdFloatDiv                  0      0.00%     73.30% # Class of executed instruction
system.cpu0.op_class::SimdFloatMisc                 0      0.00%     73.30% # Class of executed instruction
system.cpu0.op_class::SimdFloatMult                 0      0.00%     73.30% # Class of executed instruction
system.cpu0.op_class::SimdFloatMultAcc              0      0.00%     73.30% # Class of executed instruction
system.cpu0.op_class::SimdFloatSqrt                 0      0.00%     73.30% # Class of executed instruction
system.cpu0.op_class::MemRead                11818464     17.38%     90.69% # Class of executed instruction
system.cpu0.op_class::MemWrite                5620353      8.27%     98.96% # Class of executed instruction
system.cpu0.op_class::FloatMemRead              67678      0.10%     99.06% # Class of executed instruction
system.cpu0.op_class::FloatMemWrite             64482      0.09%     99.15% # Class of executed instruction
system.cpu0.op_class::IprAccess                577860      0.85%    100.00% # Class of executed instruction
system.cpu0.op_class::InstPrefetch                  0      0.00%    100.00% # Class of executed instruction
system.cpu0.op_class::total                  67981305                       # Class of executed instruction
system.cpu0.dcache.tags.pwrStateResidencyTicks::UNDEFINED 2455256280500                       # Cumulative time (in ticks) in various power states
system.cpu0.dcache.tags.replacements          2303515                       # number of replacements
system.cpu0.dcache.tags.tagsinuse         1015.703024                       # Cycle average of tags in use
system.cpu0.dcache.tags.total_refs           14850782                       # Total number of references to valid blocks.
system.cpu0.dcache.tags.sampled_refs          2303515                       # Sample count of references to valid blocks.
system.cpu0.dcache.tags.avg_refs             6.447009                       # Average number of references to valid blocks.
system.cpu0.dcache.tags.warmup_cycle        168203500                       # Cycle when the warmup percentage was hit.
system.cpu0.dcache.tags.occ_blocks::cpu0.data  1015.703024                       # Average occupied blocks per requestor
system.cpu0.dcache.tags.occ_percent::cpu0.data     0.991897                       # Average percentage of cache occupancy
system.cpu0.dcache.tags.occ_percent::total     0.991897                       # Average percentage of cache occupancy
system.cpu0.dcache.tags.occ_task_id_blocks::1024         1024                       # Occupied blocks per task id
system.cpu0.dcache.tags.age_task_id_blocks_1024::0          109                       # Occupied blocks per task id
system.cpu0.dcache.tags.age_task_id_blocks_1024::1          794                       # Occupied blocks per task id
system.cpu0.dcache.tags.age_task_id_blocks_1024::2          114                       # Occupied blocks per task id
system.cpu0.dcache.tags.age_task_id_blocks_1024::3            6                       # Occupied blocks per task id
system.cpu0.dcache.tags.age_task_id_blocks_1024::4            1                       # Occupied blocks per task id
system.cpu0.dcache.tags.occ_task_id_percent::1024            1                       # Percentage of cache occupancy per task id
system.cpu0.dcache.tags.tag_accesses        553177222                       # Number of tag accesses
system.cpu0.dcache.tags.data_accesses       553177222                       # Number of data accesses
system.cpu0.dcache.pwrStateResidencyTicks::UNDEFINED 2455256280500                       # Cumulative time (in ticks) in various power states
system.cpu0.dcache.ReadReq_hits::cpu0.data      9570596                       # number of ReadReq hits
system.cpu0.dcache.ReadReq_hits::total        9570596                       # number of ReadReq hits
system.cpu0.dcache.WriteReq_hits::cpu0.data      4841393                       # number of WriteReq hits
system.cpu0.dcache.WriteReq_hits::total       4841393                       # number of WriteReq hits
system.cpu0.dcache.LoadLockedReq_hits::cpu0.data       209335                       # number of LoadLockedReq hits
system.cpu0.dcache.LoadLockedReq_hits::total       209335                       # number of LoadLockedReq hits
system.cpu0.dcache.StoreCondReq_hits::cpu0.data       212451                       # number of StoreCondReq hits
system.cpu0.dcache.StoreCondReq_hits::total       212451                       # number of StoreCondReq hits
system.cpu0.dcache.demand_hits::cpu0.data     14411989                       # number of demand (read+write) hits
system.cpu0.dcache.demand_hits::total        14411989                       # number of demand (read+write) hits
system.cpu0.dcache.overall_hits::cpu0.data     14411989                       # number of overall hits
system.cpu0.dcache.overall_hits::total       14411989                       # number of overall hits
system.cpu0.dcache.ReadReq_misses::cpu0.data      1765137                       # number of ReadReq misses
system.cpu0.dcache.ReadReq_misses::total      1765137                       # number of ReadReq misses
system.cpu0.dcache.WriteReq_misses::cpu0.data       588399                       # number of WriteReq misses
system.cpu0.dcache.WriteReq_misses::total       588399                       # number of WriteReq misses
system.cpu0.dcache.LoadLockedReq_misses::cpu0.data        14835                       # number of LoadLockedReq misses
system.cpu0.dcache.LoadLockedReq_misses::total        14835                       # number of LoadLockedReq misses
system.cpu0.dcache.StoreCondReq_misses::cpu0.data        11429                       # number of StoreCondReq misses
system.cpu0.dcache.StoreCondReq_misses::total        11429                       # number of StoreCondReq misses
system.cpu0.dcache.demand_misses::cpu0.data      2353536                       # number of demand (read+write) misses
system.cpu0.dcache.demand_misses::total       2353536                       # number of demand (read+write) misses
system.cpu0.dcache.overall_misses::cpu0.data      2353536                       # number of overall misses
system.cpu0.dcache.overall_misses::total      2353536                       # number of overall misses
system.cpu0.dcache.ReadReq_miss_latency::cpu0.data  42777173000                       # number of ReadReq miss cycles
system.cpu0.dcache.ReadReq_miss_latency::total  42777173000                       # number of ReadReq miss cycles
system.cpu0.dcache.WriteReq_miss_latency::cpu0.data  37164185500                       # number of WriteReq miss cycles
system.cpu0.dcache.WriteReq_miss_latency::total  37164185500                       # number of WriteReq miss cycles
system.cpu0.dcache.LoadLockedReq_miss_latency::cpu0.data    150369500                       # number of LoadLockedReq miss cycles
system.cpu0.dcache.LoadLockedReq_miss_latency::total    150369500                       # number of LoadLockedReq miss cycles
system.cpu0.dcache.StoreCondReq_miss_latency::cpu0.data     58827500                       # number of StoreCondReq miss cycles
system.cpu0.dcache.StoreCondReq_miss_latency::total     58827500                       # number of StoreCondReq miss cycles
system.cpu0.dcache.StoreCondFailReq_miss_latency::cpu0.data         5500                       # number of StoreCondFailReq miss cycles
system.cpu0.dcache.StoreCondFailReq_miss_latency::total         5500                       # number of StoreCondFailReq miss cycles
system.cpu0.dcache.demand_miss_latency::cpu0.data  79941358500                       # number of demand (read+write) miss cycles
system.cpu0.dcache.demand_miss_latency::total  79941358500                       # number of demand (read+write) miss cycles
system.cpu0.dcache.overall_miss_latency::cpu0.data  79941358500                       # number of overall miss cycles
system.cpu0.dcache.overall_miss_latency::total  79941358500                       # number of overall miss cycles
system.cpu0.dcache.ReadReq_accesses::cpu0.data     11335733                       # number of ReadReq accesses(hits+misses)
system.cpu0.dcache.ReadReq_accesses::total     11335733                       # number of ReadReq accesses(hits+misses)
system.cpu0.dcache.WriteReq_accesses::cpu0.data      5429792                       # number of WriteReq accesses(hits+misses)
system.cpu0.dcache.WriteReq_accesses::total      5429792                       # number of WriteReq accesses(hits+misses)
system.cpu0.dcache.LoadLockedReq_accesses::cpu0.data       224170                       # number of LoadLockedReq accesses(hits+misses)
system.cpu0.dcache.LoadLockedReq_accesses::total       224170                       # number of LoadLockedReq accesses(hits+misses)
system.cpu0.dcache.StoreCondReq_accesses::cpu0.data       223880                       # number of StoreCondReq accesses(hits+misses)
system.cpu0.dcache.StoreCondReq_accesses::total       223880                       # number of StoreCondReq accesses(hits+misses)
system.cpu0.dcache.demand_accesses::cpu0.data     16765525                       # number of demand (read+write) accesses
system.cpu0.dcache.demand_accesses::total     16765525                       # number of demand (read+write) accesses
system.cpu0.dcache.overall_accesses::cpu0.data     16765525                       # number of overall (read+write) accesses
system.cpu0.dcache.overall_accesses::total     16765525                       # number of overall (read+write) accesses
system.cpu0.dcache.ReadReq_miss_rate::cpu0.data     0.155714                       # miss rate for ReadReq accesses
system.cpu0.dcache.ReadReq_miss_rate::total     0.155714                       # miss rate for ReadReq accesses
system.cpu0.dcache.WriteReq_miss_rate::cpu0.data     0.108365                       # miss rate for WriteReq accesses
system.cpu0.dcache.WriteReq_miss_rate::total     0.108365                       # miss rate for WriteReq accesses
system.cpu0.dcache.LoadLockedReq_miss_rate::cpu0.data     0.066177                       # miss rate for LoadLockedReq accesses
system.cpu0.dcache.LoadLockedReq_miss_rate::total     0.066177                       # miss rate for LoadLockedReq accesses
system.cpu0.dcache.StoreCondReq_miss_rate::cpu0.data     0.051050                       # miss rate for StoreCondReq accesses
system.cpu0.dcache.StoreCondReq_miss_rate::total     0.051050                       # miss rate for StoreCondReq accesses
system.cpu0.dcache.demand_miss_rate::cpu0.data     0.140379                       # miss rate for demand accesses
system.cpu0.dcache.demand_miss_rate::total     0.140379                       # miss rate for demand accesses
system.cpu0.dcache.overall_miss_rate::cpu0.data     0.140379                       # miss rate for overall accesses
system.cpu0.dcache.overall_miss_rate::total     0.140379                       # miss rate for overall accesses
system.cpu0.dcache.ReadReq_avg_miss_latency::cpu0.data 24234.477550                       # average ReadReq miss latency
system.cpu0.dcache.ReadReq_avg_miss_latency::total 24234.477550                       # average ReadReq miss latency
system.cpu0.dcache.WriteReq_avg_miss_latency::cpu0.data 63161.537494                       # average WriteReq miss latency
system.cpu0.dcache.WriteReq_avg_miss_latency::total 63161.537494                       # average WriteReq miss latency
system.cpu0.dcache.LoadLockedReq_avg_miss_latency::cpu0.data 10136.130772                       # average LoadLockedReq miss latency
system.cpu0.dcache.LoadLockedReq_avg_miss_latency::total 10136.130772                       # average LoadLockedReq miss latency
system.cpu0.dcache.StoreCondReq_avg_miss_latency::cpu0.data  5147.213230                       # average StoreCondReq miss latency
system.cpu0.dcache.StoreCondReq_avg_miss_latency::total  5147.213230                       # average StoreCondReq miss latency
system.cpu0.dcache.StoreCondFailReq_avg_miss_latency::cpu0.data          inf                       # average StoreCondFailReq miss latency
system.cpu0.dcache.StoreCondFailReq_avg_miss_latency::total          inf                       # average StoreCondFailReq miss latency
system.cpu0.dcache.demand_avg_miss_latency::cpu0.data 33966.490634                       # average overall miss latency
system.cpu0.dcache.demand_avg_miss_latency::total 33966.490634                       # average overall miss latency
system.cpu0.dcache.overall_avg_miss_latency::cpu0.data 33966.490634                       # average overall miss latency
system.cpu0.dcache.overall_avg_miss_latency::total 33966.490634                       # average overall miss latency
system.cpu0.dcache.blocked_cycles::no_mshrs            0                       # number of cycles access was blocked
system.cpu0.dcache.blocked_cycles::no_targets            0                       # number of cycles access was blocked
system.cpu0.dcache.blocked::no_mshrs                0                       # number of cycles access was blocked
system.cpu0.dcache.blocked::no_targets              0                       # number of cycles access was blocked
system.cpu0.dcache.avg_blocked_cycles::no_mshrs          nan                       # average number of cycles each access was blocked
system.cpu0.dcache.avg_blocked_cycles::no_targets          nan                       # average number of cycles each access was blocked
system.cpu0.dcache.writebacks::writebacks      1940371                       # number of writebacks
system.cpu0.dcache.writebacks::total          1940371                       # number of writebacks
system.cpu0.dcache.ReadReq_mshr_misses::cpu0.data      1765137                       # number of ReadReq MSHR misses
system.cpu0.dcache.ReadReq_mshr_misses::total      1765137                       # number of ReadReq MSHR misses
system.cpu0.dcache.WriteReq_mshr_misses::cpu0.data       588399                       # number of WriteReq MSHR misses
system.cpu0.dcache.WriteReq_mshr_misses::total       588399                       # number of WriteReq MSHR misses
system.cpu0.dcache.LoadLockedReq_mshr_misses::cpu0.data        14835                       # number of LoadLockedReq MSHR misses
system.cpu0.dcache.LoadLockedReq_mshr_misses::total        14835                       # number of LoadLockedReq MSHR misses
system.cpu0.dcache.StoreCondReq_mshr_misses::cpu0.data        11429                       # number of StoreCondReq MSHR misses
system.cpu0.dcache.StoreCondReq_mshr_misses::total        11429                       # number of StoreCondReq MSHR misses
system.cpu0.dcache.demand_mshr_misses::cpu0.data      2353536                       # number of demand (read+write) MSHR misses
system.cpu0.dcache.demand_mshr_misses::total      2353536                       # number of demand (read+write) MSHR misses
system.cpu0.dcache.overall_mshr_misses::cpu0.data      2353536                       # number of overall MSHR misses
system.cpu0.dcache.overall_mshr_misses::total      2353536                       # number of overall MSHR misses
system.cpu0.dcache.ReadReq_mshr_uncacheable::cpu0.data         5218                       # number of ReadReq MSHR uncacheable
system.cpu0.dcache.ReadReq_mshr_uncacheable::total         5218                       # number of ReadReq MSHR uncacheable
system.cpu0.dcache.WriteReq_mshr_uncacheable::cpu0.data         9826                       # number of WriteReq MSHR uncacheable
system.cpu0.dcache.WriteReq_mshr_uncacheable::total         9826                       # number of WriteReq MSHR uncacheable
system.cpu0.dcache.overall_mshr_uncacheable_misses::cpu0.data        15044                       # number of overall MSHR uncacheable misses
system.cpu0.dcache.overall_mshr_uncacheable_misses::total        15044                       # number of overall MSHR uncacheable misses
system.cpu0.dcache.ReadReq_mshr_miss_latency::cpu0.data  41012036000                       # number of ReadReq MSHR miss cycles
system.cpu0.dcache.ReadReq_mshr_miss_latency::total  41012036000                       # number of ReadReq MSHR miss cycles
system.cpu0.dcache.WriteReq_mshr_miss_latency::cpu0.data  36575786500                       # number of WriteReq MSHR miss cycles
system.cpu0.dcache.WriteReq_mshr_miss_latency::total  36575786500                       # number of WriteReq MSHR miss cycles
system.cpu0.dcache.LoadLockedReq_mshr_miss_latency::cpu0.data    135534500                       # number of LoadLockedReq MSHR miss cycles
system.cpu0.dcache.LoadLockedReq_mshr_miss_latency::total    135534500                       # number of LoadLockedReq MSHR miss cycles
system.cpu0.dcache.StoreCondReq_mshr_miss_latency::cpu0.data     47399500                       # number of StoreCondReq MSHR miss cycles
system.cpu0.dcache.StoreCondReq_mshr_miss_latency::total     47399500                       # number of StoreCondReq MSHR miss cycles
system.cpu0.dcache.StoreCondFailReq_mshr_miss_latency::cpu0.data         4500                       # number of StoreCondFailReq MSHR miss cycles
system.cpu0.dcache.StoreCondFailReq_mshr_miss_latency::total         4500                       # number of StoreCondFailReq MSHR miss cycles
system.cpu0.dcache.demand_mshr_miss_latency::cpu0.data  77587822500                       # number of demand (read+write) MSHR miss cycles
system.cpu0.dcache.demand_mshr_miss_latency::total  77587822500                       # number of demand (read+write) MSHR miss cycles
system.cpu0.dcache.overall_mshr_miss_latency::cpu0.data  77587822500                       # number of overall MSHR miss cycles
system.cpu0.dcache.overall_mshr_miss_latency::total  77587822500                       # number of overall MSHR miss cycles
system.cpu0.dcache.ReadReq_mshr_uncacheable_latency::cpu0.data   1188708500                       # number of ReadReq MSHR uncacheable cycles
system.cpu0.dcache.ReadReq_mshr_uncacheable_latency::total   1188708500                       # number of ReadReq MSHR uncacheable cycles
system.cpu0.dcache.overall_mshr_uncacheable_latency::cpu0.data   1188708500                       # number of overall MSHR uncacheable cycles
system.cpu0.dcache.overall_mshr_uncacheable_latency::total   1188708500                       # number of overall MSHR uncacheable cycles
system.cpu0.dcache.ReadReq_mshr_miss_rate::cpu0.data     0.155714                       # mshr miss rate for ReadReq accesses
system.cpu0.dcache.ReadReq_mshr_miss_rate::total     0.155714                       # mshr miss rate for ReadReq accesses
system.cpu0.dcache.WriteReq_mshr_miss_rate::cpu0.data     0.108365                       # mshr miss rate for WriteReq accesses
system.cpu0.dcache.WriteReq_mshr_miss_rate::total     0.108365                       # mshr miss rate for WriteReq accesses
system.cpu0.dcache.LoadLockedReq_mshr_miss_rate::cpu0.data     0.066177                       # mshr miss rate for LoadLockedReq accesses
system.cpu0.dcache.LoadLockedReq_mshr_miss_rate::total     0.066177                       # mshr miss rate for LoadLockedReq accesses
system.cpu0.dcache.StoreCondReq_mshr_miss_rate::cpu0.data     0.051050                       # mshr miss rate for StoreCondReq accesses
system.cpu0.dcache.StoreCondReq_mshr_miss_rate::total     0.051050                       # mshr miss rate for StoreCondReq accesses
system.cpu0.dcache.demand_mshr_miss_rate::cpu0.data     0.140379                       # mshr miss rate for demand accesses
system.cpu0.dcache.demand_mshr_miss_rate::total     0.140379                       # mshr miss rate for demand accesses
system.cpu0.dcache.overall_mshr_miss_rate::cpu0.data     0.140379                       # mshr miss rate for overall accesses
system.cpu0.dcache.overall_mshr_miss_rate::total     0.140379                       # mshr miss rate for overall accesses
system.cpu0.dcache.ReadReq_avg_mshr_miss_latency::cpu0.data 23234.477550                       # average ReadReq mshr miss latency
system.cpu0.dcache.ReadReq_avg_mshr_miss_latency::total 23234.477550                       # average ReadReq mshr miss latency
system.cpu0.dcache.WriteReq_avg_mshr_miss_latency::cpu0.data 62161.537494                       # average WriteReq mshr miss latency
system.cpu0.dcache.WriteReq_avg_mshr_miss_latency::total 62161.537494                       # average WriteReq mshr miss latency
system.cpu0.dcache.LoadLockedReq_avg_mshr_miss_latency::cpu0.data  9136.130772                       # average LoadLockedReq mshr miss latency
system.cpu0.dcache.LoadLockedReq_avg_mshr_miss_latency::total  9136.130772                       # average LoadLockedReq mshr miss latency
system.cpu0.dcache.StoreCondReq_avg_mshr_miss_latency::cpu0.data  4147.300726                       # average StoreCondReq mshr miss latency
system.cpu0.dcache.StoreCondReq_avg_mshr_miss_latency::total  4147.300726                       # average StoreCondReq mshr miss latency
[...]
system.membus.pkt_size::total                 2110357                       # Cumulative packet size per connected master and slave (bytes)
system.membus.snoops                             2768                       # Total snoops (count)
system.membus.snoopTraffic                        960                       # Total snoop traffic (bytes)
system.membus.snoop_fanout::samples             52290                       # Request fanout histogram
system.membus.snoop_fanout::mean             0.037292                       # Request fanout histogram
system.membus.snoop_fanout::stdev            0.189478                       # Request fanout histogram
system.membus.snoop_fanout::underflows              0      0.00%      0.00% # Request fanout histogram
system.membus.snoop_fanout::0                   50340     96.27%     96.27% # Request fanout histogram
system.membus.snoop_fanout::1                    1950      3.73%    100.00% # Request fanout histogram
system.membus.snoop_fanout::2                       0      0.00%    100.00% # Request fanout histogram
system.membus.snoop_fanout::overflows               0      0.00%    100.00% # Request fanout histogram
system.membus.snoop_fanout::min_value               0                       # Request fanout histogram
system.membus.snoop_fanout::max_value               1                       # Request fanout histogram
system.membus.snoop_fanout::total               52290                       # Request fanout histogram
system.membus.reqLayer0.occupancy             1810499                       # Layer occupancy (ticks)
system.membus.reqLayer0.utilization               0.0                       # Layer utilization (%)
system.membus.reqLayer1.occupancy           175270234                       # Layer occupancy (ticks)
system.membus.reqLayer1.utilization               3.0                       # Layer utilization (%)
system.membus.respLayer1.occupancy            2091852                       # Layer occupancy (ticks)
system.membus.respLayer1.utilization              0.0                       # Layer utilization (%)
system.membus.respLayer2.occupancy           92803500                       # Layer occupancy (ticks)
system.membus.respLayer2.utilization              1.6                       # Layer utilization (%)
system.membus.badaddr_responder.pwrStateResidencyTicks::UNDEFINED   5935060000                       # Cumulative time (in ticks) in various power states
system.tol2bus.snoop_filter.tot_requests       274348                       # Total number of requests made to the snoop filter.
system.tol2bus.snoop_filter.hit_single_requests       127782                       # Number of requests hitting in the snoop filter with a single holder of the requested data.
system.tol2bus.snoop_filter.hit_multi_requests        29293                       # Number of requests hitting in the snoop filter with multiple (>1) holders of the requested data.
system.tol2bus.snoop_filter.tot_snoops           2744                       # Total number of snoops made to the snoop filter.
system.tol2bus.snoop_filter.hit_single_snoops         2350                       # Number of snoops hitting in the snoop filter with a single holder of the requested data.
system.tol2bus.snoop_filter.hit_multi_snoops          394                       # Number of snoops hitting in the snoop filter with multiple (>1) holders of the requested data.
system.tol2bus.pwrStateResidencyTicks::UNDEFINED   5935060000                       # Cumulative time (in ticks) in various power states
system.tol2bus.trans_dist::ReadReq                589                       # Transaction distribution
system.tol2bus.trans_dist::ReadResp            108859                       # Transaction distribution
system.tol2bus.trans_dist::WriteReq               466                       # Transaction distribution
system.tol2bus.trans_dist::WriteResp              466                       # Transaction distribution
system.tol2bus.trans_dist::WritebackDirty        55969                       # Transaction distribution
system.tol2bus.trans_dist::WritebackClean        81959                       # Transaction distribution
system.tol2bus.trans_dist::CleanEvict           25007                       # Transaction distribution
system.tol2bus.trans_dist::UpgradeReq             697                       # Transaction distribution
system.tol2bus.trans_dist::SCUpgradeReq           243                       # Transaction distribution
system.tol2bus.trans_dist::UpgradeResp            940                       # Transaction distribution
system.tol2bus.trans_dist::ReadExReq            29606                       # Transaction distribution
system.tol2bus.trans_dist::ReadExResp           29606                       # Transaction distribution
system.tol2bus.trans_dist::ReadCleanReq         81963                       # Transaction distribution
system.tol2bus.trans_dist::ReadSharedReq        26307                       # Transaction distribution
system.tol2bus.trans_dist::InvalidateReq         1920                       # Transaction distribution
system.tol2bus.trans_dist::InvalidateResp           29                       # Transaction distribution
system.tol2bus.pkt_count_system.cpu0.icache.mem_side::system.l2.cpu_side        69397                       # Packet count per connected master and slave (bytes)
system.tol2bus.pkt_count_system.cpu0.dcache.mem_side::system.l2.cpu_side        87070                       # Packet count per connected master and slave (bytes)
system.tol2bus.pkt_count_system.cpu1.icache.mem_side::system.l2.cpu_side        18805                       # Packet count per connected master and slave (bytes)
system.tol2bus.pkt_count_system.cpu1.dcache.mem_side::system.l2.cpu_side        11986                       # Packet count per connected master and slave (bytes)
system.tol2bus.pkt_count_system.cpu2.icache.mem_side::system.l2.cpu_side       136275                       # Packet count per connected master and slave (bytes)
system.tol2bus.pkt_count_system.cpu2.dcache.mem_side::system.l2.cpu_side        53380                       # Packet count per connected master and slave (bytes)
system.tol2bus.pkt_count_system.cpu3.icache.mem_side::system.l2.cpu_side        21402                       # Packet count per connected master and slave (bytes)
system.tol2bus.pkt_count_system.cpu3.dcache.mem_side::system.l2.cpu_side        12139                       # Packet count per connected master and slave (bytes)
system.tol2bus.pkt_count::total                410454                       # Packet count per connected master and slave (bytes)
system.tol2bus.pkt_size_system.cpu0.icache.mem_side::system.l2.cpu_side      1480416                       # Cumulative packet size per connected master and slave (bytes)
system.tol2bus.pkt_size_system.cpu0.dcache.mem_side::system.l2.cpu_side      1590820                       # Cumulative packet size per connected master and slave (bytes)
system.tol2bus.pkt_size_system.cpu1.icache.mem_side::system.l2.cpu_side       401152                       # Cumulative packet size per connected master and slave (bytes)
system.tol2bus.pkt_size_system.cpu1.dcache.mem_side::system.l2.cpu_side       204220                       # Cumulative packet size per connected master and slave (bytes)
system.tol2bus.pkt_size_system.cpu2.icache.mem_side::system.l2.cpu_side      2907168                       # Cumulative packet size per connected master and slave (bytes)
system.tol2bus.pkt_size_system.cpu2.dcache.mem_side::system.l2.cpu_side       950729                       # Cumulative packet size per connected master and slave (bytes)
system.tol2bus.pkt_size_system.cpu3.icache.mem_side::system.l2.cpu_side       456576                       # Cumulative packet size per connected master and slave (bytes)
system.tol2bus.pkt_size_system.cpu3.dcache.mem_side::system.l2.cpu_side       209196                       # Cumulative packet size per connected master and slave (bytes)
system.tol2bus.pkt_size::total                8200277                       # Cumulative packet size per connected master and slave (bytes)
system.tol2bus.snoops                           34231                       # Total snoops (count)
system.tol2bus.snoopTraffic                    628288                       # Total snoop traffic (bytes)
system.tol2bus.snoop_fanout::samples           169164                       # Request fanout histogram
system.tol2bus.snoop_fanout::mean            0.230002                       # Request fanout histogram
system.tol2bus.snoop_fanout::stdev           0.639196                       # Request fanout histogram
system.tol2bus.snoop_fanout::underflows             0      0.00%      0.00% # Request fanout histogram
system.tol2bus.snoop_fanout::0                 144945     85.68%     85.68% # Request fanout histogram
system.tol2bus.snoop_fanout::1                  14410      8.52%     94.20% # Request fanout histogram
system.tol2bus.snoop_fanout::2                   4938      2.92%     97.12% # Request fanout histogram
system.tol2bus.snoop_fanout::3                   4862      2.87%     99.99% # Request fanout histogram
system.tol2bus.snoop_fanout::4                      9      0.01%    100.00% # Request fanout histogram
system.tol2bus.snoop_fanout::5                      0      0.00%    100.00% # Request fanout histogram
system.tol2bus.snoop_fanout::6                      0      0.00%    100.00% # Request fanout histogram
system.tol2bus.snoop_fanout::7                      0      0.00%    100.00% # Request fanout histogram
system.tol2bus.snoop_fanout::8                      0      0.00%    100.00% # Request fanout histogram
system.tol2bus.snoop_fanout::overflows              0      0.00%    100.00% # Request fanout histogram
system.tol2bus.snoop_fanout::min_value              0                       # Request fanout histogram
system.tol2bus.snoop_fanout::max_value              4                       # Request fanout histogram
system.tol2bus.snoop_fanout::total             169164                       # Request fanout histogram
system.tol2bus.reqLayer0.occupancy          199128000                       # Layer occupancy (ticks)
system.tol2bus.reqLayer0.utilization              3.4                       # Layer utilization (%)
system.tol2bus.snoopLayer0.occupancy            52484                       # Layer occupancy (ticks)
system.tol2bus.snoopLayer0.utilization            0.0                       # Layer utilization (%)
system.tol2bus.respLayer0.occupancy          23152463                       # Layer occupancy (ticks)
system.tol2bus.respLayer0.utilization             0.4                       # Layer utilization (%)
system.tol2bus.respLayer1.occupancy          29721454                       # Layer occupancy (ticks)
system.tol2bus.respLayer1.utilization             0.5                       # Layer utilization (%)
system.tol2bus.respLayer2.occupancy           6281974                       # Layer occupancy (ticks)
system.tol2bus.respLayer2.utilization             0.1                       # Layer utilization (%)
system.tol2bus.respLayer3.occupancy           4409974                       # Layer occupancy (ticks)
system.tol2bus.respLayer3.utilization             0.1                       # Layer utilization (%)
system.tol2bus.respLayer4.occupancy          45451449                       # Layer occupancy (ticks)
system.tol2bus.respLayer4.utilization             0.8                       # Layer utilization (%)
system.tol2bus.respLayer5.occupancy          18613977                       # Layer occupancy (ticks)
system.tol2bus.respLayer5.utilization             0.3                       # Layer utilization (%)
system.tol2bus.respLayer6.occupancy           7143481                       # Layer occupancy (ticks)
system.tol2bus.respLayer6.utilization             0.1                       # Layer utilization (%)
system.tol2bus.respLayer7.occupancy           4497958                       # Layer occupancy (ticks)
system.tol2bus.respLayer7.utilization             0.1                       # Layer utilization (%)
system.tsunami.backdoor.pwrStateResidencyTicks::UNDEFINED   5935060000                       # Cumulative time (in ticks) in various power states
system.tsunami.cchip.pwrStateResidencyTicks::UNDEFINED   5935060000                       # Cumulative time (in ticks) in various power states
system.tsunami.pchip.pwrStateResidencyTicks::UNDEFINED   5935060000                       # Cumulative time (in ticks) in various power states
system.tsunami.ethernet.pwrStateResidencyTicks::UNDEFINED   5935060000                       # Cumulative time (in ticks) in various power states
system.tsunami.ethernet.descDMAReads                0                       # Number of descriptors the device read w/ DMA
system.tsunami.ethernet.descDMAWrites               0                       # Number of descriptors the device wrote w/ DMA
system.tsunami.ethernet.descDmaReadBytes            0                       # number of descriptor bytes read w/ DMA
system.tsunami.ethernet.descDmaWriteBytes            0                       # number of descriptor bytes write w/ DMA
system.tsunami.ethernet.postedSwi                   0                       # number of software interrupts posted to CPU
system.tsunami.ethernet.coalescedSwi              nan                       # average number of Swi's coalesced into each post
system.tsunami.ethernet.totalSwi                    0                       # total number of Swi written to ISR
system.tsunami.ethernet.postedRxIdle                0                       # number of rxIdle interrupts posted to CPU
system.tsunami.ethernet.coalescedRxIdle           nan                       # average number of RxIdle's coalesced into each post
system.tsunami.ethernet.totalRxIdle                 0                       # total number of RxIdle written to ISR
system.tsunami.ethernet.postedRxOk                  0                       # number of RxOk interrupts posted to CPU
system.tsunami.ethernet.coalescedRxOk             nan                       # average number of RxOk's coalesced into each post
system.tsunami.ethernet.totalRxOk                   0                       # total number of RxOk written to ISR
system.tsunami.ethernet.postedRxDesc                0                       # number of RxDesc interrupts posted to CPU
system.tsunami.ethernet.coalescedRxDesc           nan                       # average number of RxDesc's coalesced into each post
system.tsunami.ethernet.totalRxDesc                 0                       # total number of RxDesc written to ISR
system.tsunami.ethernet.postedTxOk                  0                       # number of TxOk interrupts posted to CPU
system.tsunami.ethernet.coalescedTxOk             nan                       # average number of TxOk's coalesced into each post
system.tsunami.ethernet.totalTxOk                   0                       # total number of TxOk written to ISR
system.tsunami.ethernet.postedTxIdle                0                       # number of TxIdle interrupts posted to CPU
system.tsunami.ethernet.coalescedTxIdle           nan                       # average number of TxIdle's coalesced into each post
system.tsunami.ethernet.totalTxIdle                 0                       # total number of TxIdle written to ISR
system.tsunami.ethernet.postedTxDesc                0                       # number of TxDesc interrupts posted to CPU
system.tsunami.ethernet.coalescedTxDesc           nan                       # average number of TxDesc's coalesced into each post
system.tsunami.ethernet.totalTxDesc                 0                       # total number of TxDesc written to ISR
system.tsunami.ethernet.postedRxOrn                 0                       # number of RxOrn posted to CPU
system.tsunami.ethernet.coalescedRxOrn            nan                       # average number of RxOrn's coalesced into each post
system.tsunami.ethernet.totalRxOrn                  0                       # total number of RxOrn written to ISR
system.tsunami.ethernet.coalescedTotal            nan                       # average number of interrupts coalesced into each post
system.tsunami.ethernet.postedInterrupts            0                       # number of posts to CPU
system.tsunami.ethernet.droppedPackets              0                       # number of packets dropped
system.tsunami.fake_OROM.pwrStateResidencyTicks::UNDEFINED   5935060000                       # Cumulative time (in ticks) in various power states
system.tsunami.fake_ata0.pwrStateResidencyTicks::UNDEFINED   5935060000                       # Cumulative time (in ticks) in various power states
system.tsunami.fake_ata1.pwrStateResidencyTicks::UNDEFINED   5935060000                       # Cumulative time (in ticks) in various power states
system.tsunami.fake_pnp_addr.pwrStateResidencyTicks::UNDEFINED   5935060000                       # Cumulative time (in ticks) in various power states
system.tsunami.fake_pnp_read0.pwrStateResidencyTicks::UNDEFINED   5935060000                       # Cumulative time (in ticks) in various power states
system.tsunami.fake_pnp_read1.pwrStateResidencyTicks::UNDEFINED   5935060000                       # Cumulative time (in ticks) in various power states
system.tsunami.fake_pnp_read2.pwrStateResidencyTicks::UNDEFINED   5935060000                       # Cumulative time (in ticks) in various power states
system.tsunami.fake_pnp_read3.pwrStateResidencyTicks::UNDEFINED   5935060000                       # Cumulative time (in ticks) in various power states
system.tsunami.fake_pnp_read4.pwrStateResidencyTicks::UNDEFINED   5935060000                       # Cumulative time (in ticks) in various power states
system.tsunami.fake_pnp_read5.pwrStateResidencyTicks::UNDEFINED   5935060000                       # Cumulative time (in ticks) in various power states
system.tsunami.fake_pnp_read6.pwrStateResidencyTicks::UNDEFINED   5935060000                       # Cumulative time (in ticks) in various power states
system.tsunami.fake_pnp_read7.pwrStateResidencyTicks::UNDEFINED   5935060000                       # Cumulative time (in ticks) in various power states
system.tsunami.fake_pnp_write.pwrStateResidencyTicks::UNDEFINED   5935060000                       # Cumulative time (in ticks) in various power states
system.tsunami.fake_ppc.pwrStateResidencyTicks::UNDEFINED   5935060000                       # Cumulative time (in ticks) in various power states
system.tsunami.fake_sm_chip.pwrStateResidencyTicks::UNDEFINED   5935060000                       # Cumulative time (in ticks) in various power states
system.tsunami.fake_uart1.pwrStateResidencyTicks::UNDEFINED   5935060000                       # Cumulative time (in ticks) in various power states
system.tsunami.fake_uart2.pwrStateResidencyTicks::UNDEFINED   5935060000                       # Cumulative time (in ticks) in various power states
system.tsunami.fake_uart3.pwrStateResidencyTicks::UNDEFINED   5935060000                       # Cumulative time (in ticks) in various power states
system.tsunami.fake_uart4.pwrStateResidencyTicks::UNDEFINED   5935060000                       # Cumulative time (in ticks) in various power states
system.tsunami.fb.pwrStateResidencyTicks::UNDEFINED   5935060000                       # Cumulative time (in ticks) in various power states
system.tsunami.ide.pwrStateResidencyTicks::UNDEFINED   5935060000                       # Cumulative time (in ticks) in various power states
system.tsunami.io.pwrStateResidencyTicks::UNDEFINED   5935060000                       # Cumulative time (in ticks) in various power states
system.tsunami.uart.pwrStateResidencyTicks::UNDEFINED   5935060000                       # Cumulative time (in ticks) in various power states

---------- End Simulation Statistics   ----------
