
---------- Begin Simulation Statistics ----------
sim_seconds                                  2.638404                       # Number of seconds simulated
sim_ticks                                2638404194500                       # Number of ticks simulated
final_tick                               2638404194500                       # Number of ticks from beginning of simulation (restored from checkpoints and never reset)
sim_freq                                 1000000000000                       # Frequency of simulated ticks
host_inst_rate                                 225985                       # Simulator instruction rate (inst/s)
host_op_rate                                   225985                       # Simulator op (including micro ops) rate (op/s)
host_tick_rate                             6117756678                       # Simulator tick rate (ticks/s)
host_mem_usage                                 732000                       # Number of bytes of host memory used
host_seconds                                   431.27                       # Real time elapsed on the host
sim_insts                                    97460359                       # Number of instructions simulated
sim_ops                                      97460359                       # Number of ops (including micro ops) simulated
system.voltage_domain.voltage                       1                       # Voltage in Volts
system.clk_domain.clock                          1000                       # Clock period in ticks
system.mem_ctrls.pwrStateResidencyTicks::UNDEFINED 2638404194500                       # Cumulative time (in ticks) in various power states
system.mem_ctrls.bytes_read::cpu.inst       103762304                       # Number of bytes read from this memory
system.mem_ctrls.bytes_read::cpu.data       308697088                       # Number of bytes read from this memory
system.mem_ctrls.bytes_read::tsunami.ide         4096                       # Number of bytes read from this memory
system.mem_ctrls.bytes_read::total          412463488                       # Number of bytes read from this memory
system.mem_ctrls.bytes_inst_read::cpu.inst    103762304                       # Number of instructions bytes read from this memory
system.mem_ctrls.bytes_inst_read::total     103762304                       # Number of instructions bytes read from this memory
system.mem_ctrls.bytes_written::writebacks     54284288                       # Number of bytes written to this memory
system.mem_ctrls.bytes_written::total        54284288                       # Number of bytes written to this memory
system.mem_ctrls.num_reads::cpu.inst           810643                       # Number of read requests responded to by this memory
system.mem_ctrls.num_reads::cpu.data          2411696                       # Number of read requests responded to by this memory
system.mem_ctrls.num_reads::tsunami.ide            32                       # Number of read requests responded to by this memory
system.mem_ctrls.num_reads::total             3222371                       # Number of read requests responded to by this memory
system.mem_ctrls.num_writes::writebacks        424096                       # Number of write requests responded to by this memory
system.mem_ctrls.num_writes::total             424096                       # Number of write requests responded to by this memory
system.mem_ctrls.bw_read::cpu.inst           39327676                       # Total read bandwidth from this memory (bytes/s)
system.mem_ctrls.bw_read::cpu.data          117001439                       # Total read bandwidth from this memory (bytes/s)
system.mem_ctrls.bw_read::tsunami.ide            1552                       # Total read bandwidth from this memory (bytes/s)
system.mem_ctrls.bw_read::total             156330667                       # Total read bandwidth from this memory (bytes/s)
system.mem_ctrls.bw_inst_read::cpu.inst      39327676                       # Instruction read bandwidth from this memory (bytes/s)
system.mem_ctrls.bw_inst_read::total         39327676                       # Instruction read bandwidth from this memory (bytes/s)
system.mem_ctrls.bw_write::writebacks        20574667                       # Write bandwidth from this memory (bytes/s)
system.mem_ctrls.bw_write::total             20574667                       # Write bandwidth from this memory (bytes/s)
system.mem_ctrls.bw_total::writebacks        20574667                       # Total bandwidth to/from this memory (bytes/s)
system.mem_ctrls.bw_total::cpu.inst          39327676                       # Total bandwidth to/from this memory (bytes/s)
system.mem_ctrls.bw_total::cpu.data         117001439                       # Total bandwidth to/from this memory (bytes/s)
system.mem_ctrls.bw_total::tsunami.ide           1552                       # Total bandwidth to/from this memory (bytes/s)
system.mem_ctrls.bw_total::total            176905334                       # Total bandwidth to/from this memory (bytes/s)
system.mem_ctrls.readReqs                     3222371                       # Number of read requests accepted
system.mem_ctrls.writeReqs                     424096                       # Number of write requests accepted
system.mem_ctrls.readBursts                   6444742                       # Number of DRAM read bursts, including those serviced by the write queue
system.mem_ctrls.writeBursts                   848192                       # Number of DRAM write bursts, including those merged in the write queue
system.mem_ctrls.bytesReadDRAM              409929664                       # Total number of bytes read from DRAM
system.mem_ctrls.bytesReadWrQ                 2533824                       # Total number of bytes read from write queue
system.mem_ctrls.bytesWritten                53873920                       # Total number of bytes written to DRAM
system.mem_ctrls.bytesReadSys               412463488                       # Total read bytes from the system interface side
system.mem_ctrls.bytesWrittenSys             54284288                       # Total written bytes from the system interface side
system.mem_ctrls.servicedByWrQ                  39591                       # Number of DRAM read bursts serviced by the write queue
system.mem_ctrls.mergedWrBursts                  6391                       # Number of DRAM write bursts merged with an existing one
system.mem_ctrls.neitherReadNorWriteReqs            0                       # Number of requests that are neither read nor write
system.mem_ctrls.perBankRdBursts::0            585081                       # Per bank write bursts
system.mem_ctrls.perBankRdBursts::1            337609                       # Per bank write bursts
system.mem_ctrls.perBankRdBursts::2            246460                       # Per bank write bursts
system.mem_ctrls.perBankRdBursts::3            429885                       # Per bank write bursts
system.mem_ctrls.perBankRdBursts::4            228735                       # Per bank write bursts
system.mem_ctrls.perBankRdBursts::5            409865                       # Per bank write bursts
system.mem_ctrls.perBankRdBursts::6            313681                       # Per bank write bursts
system.mem_ctrls.perBankRdBursts::7            286460                       # Per bank write bursts
system.mem_ctrls.perBankRdBursts::8            362416                       # Per bank write bursts
system.mem_ctrls.perBankRdBursts::9            513669                       # Per bank write bursts
system.mem_ctrls.perBankRdBursts::10           524465                       # Per bank write bursts
system.mem_ctrls.perBankRdBursts::11           471252                       # Per bank write bursts
system.mem_ctrls.perBankRdBursts::12           517221                       # Per bank write bursts
system.mem_ctrls.perBankRdBursts::13           378387                       # Per bank write bursts
system.mem_ctrls.perBankRdBursts::14           377340                       # Per bank write bursts
system.mem_ctrls.perBankRdBursts::15           422625                       # Per bank write bursts
system.mem_ctrls.perBankWrBursts::0             42202                       # Per bank write bursts
system.mem_ctrls.perBankWrBursts::1             95499                       # Per bank write bursts
system.mem_ctrls.perBankWrBursts::2             37192                       # Per bank write bursts
system.mem_ctrls.perBankWrBursts::3             33118                       # Per bank write bursts
system.mem_ctrls.perBankWrBursts::4             54913                       # Per bank write bursts
system.mem_ctrls.perBankWrBursts::5             33769                       # Per bank write bursts
system.mem_ctrls.perBankWrBursts::6             37336                       # Per bank write bursts
system.mem_ctrls.perBankWrBursts::7             54505                       # Per bank write bursts
system.mem_ctrls.perBankWrBursts::8             44860                       # Per bank write bursts
system.mem_ctrls.perBankWrBursts::9             57658                       # Per bank write bursts
system.mem_ctrls.perBankWrBursts::10            51102                       # Per bank write bursts
system.mem_ctrls.perBankWrBursts::11            49961                       # Per bank write bursts
system.mem_ctrls.perBankWrBursts::12            47360                       # Per bank write bursts
system.mem_ctrls.perBankWrBursts::13            72977                       # Per bank write bursts
system.mem_ctrls.perBankWrBursts::14            46420                       # Per bank write bursts
system.mem_ctrls.perBankWrBursts::15            82908                       # Per bank write bursts
system.mem_ctrls.numRdRetry                        10                       # Number of times read queue was full causing retry
system.mem_ctrls.numWrRetry                      5773                       # Number of times write queue was full causing retry
system.mem_ctrls.totGap                  2638404181500                       # Total gap between requests
system.mem_ctrls.readPktSize::0                     0                       # Read request sizes (log2)
system.mem_ctrls.readPktSize::1                     0                       # Read request sizes (log2)
system.mem_ctrls.readPktSize::2                     0                       # Read request sizes (log2)
system.mem_ctrls.readPktSize::3                     0                       # Read request sizes (log2)
system.mem_ctrls.readPktSize::4                     0                       # Read request sizes (log2)
system.mem_ctrls.readPktSize::5                     0                       # Read request sizes (log2)
system.mem_ctrls.readPktSize::6               6444742                       # Read request sizes (log2)
system.mem_ctrls.writePktSize::0                    0                       # Write request sizes (log2)
system.mem_ctrls.writePktSize::1                    0                       # Write request sizes (log2)
system.mem_ctrls.writePktSize::2                    0                       # Write request sizes (log2)
system.mem_ctrls.writePktSize::3                    0                       # Write request sizes (log2)
system.mem_ctrls.writePktSize::4                    0                       # Write request sizes (log2)
system.mem_ctrls.writePktSize::5                    0                       # Write request sizes (log2)
system.mem_ctrls.writePktSize::6               848192                       # Write request sizes (log2)
system.mem_ctrls.rdQLenPdf::0                 3203117                       # What read queue length does an incoming req see
system.mem_ctrls.rdQLenPdf::1                 3201970                       # What read queue length does an incoming req see
system.mem_ctrls.rdQLenPdf::2                       1                       # What read queue length does an incoming req see
system.mem_ctrls.rdQLenPdf::3                       1                       # What read queue length does an incoming req see
system.mem_ctrls.rdQLenPdf::4                       1                       # What read queue length does an incoming req see
system.mem_ctrls.rdQLenPdf::5                       1                       # What read queue length does an incoming req see
system.mem_ctrls.rdQLenPdf::6                       1                       # What read queue length does an incoming req see
system.mem_ctrls.rdQLenPdf::7                       1                       # What read queue length does an incoming req see
system.mem_ctrls.rdQLenPdf::8                       1                       # What read queue length does an incoming req see
system.mem_ctrls.rdQLenPdf::9                       1                       # What read queue length does an incoming req see
system.mem_ctrls.rdQLenPdf::10                      1                       # What read queue length does an incoming req see
system.mem_ctrls.rdQLenPdf::11                      1                       # What read queue length does an incoming req see
system.mem_ctrls.rdQLenPdf::12                      1                       # What read queue length does an incoming req see
system.mem_ctrls.rdQLenPdf::13                      1                       # What read queue length does an incoming req see
system.mem_ctrls.rdQLenPdf::14                      1                       # What read queue length does an incoming req see
system.mem_ctrls.rdQLenPdf::15                      1                       # What read queue length does an incoming req see
system.mem_ctrls.rdQLenPdf::16                      1                       # What read queue length does an incoming req see
system.mem_ctrls.rdQLenPdf::17                      1                       # What read queue length does an incoming req see
system.mem_ctrls.rdQLenPdf::18                      1                       # What read queue length does an incoming req see
system.mem_ctrls.rdQLenPdf::19                      1                       # What read queue length does an incoming req see
system.mem_ctrls.rdQLenPdf::20                      1                       # What read queue length does an incoming req see
system.mem_ctrls.rdQLenPdf::21                      1                       # What read queue length does an incoming req see
system.mem_ctrls.rdQLenPdf::22                      2                       # What read queue length does an incoming req see
system.mem_ctrls.rdQLenPdf::23                      2                       # What read queue length does an incoming req see
system.mem_ctrls.rdQLenPdf::24                      2                       # What read queue length does an incoming req see
system.mem_ctrls.rdQLenPdf::25                      2                       # What read queue length does an incoming req see
system.mem_ctrls.rdQLenPdf::26                      3                       # What read queue length does an incoming req see
system.mem_ctrls.rdQLenPdf::27                      4                       # What read queue length does an incoming req see
system.mem_ctrls.rdQLenPdf::28                      3                       # What read queue length does an incoming req see
system.mem_ctrls.rdQLenPdf::29                      8                       # What read queue length does an incoming req see
system.mem_ctrls.rdQLenPdf::30                     12                       # What read queue length does an incoming req see
system.mem_ctrls.rdQLenPdf::31                      6                       # What read queue length does an incoming req see
system.mem_ctrls.wrQLenPdf::0                       1                       # What write queue length does an incoming req see
system.mem_ctrls.wrQLenPdf::1                       1                       # What write queue length does an incoming req see
system.mem_ctrls.wrQLenPdf::2                       1                       # What write queue length does an incoming req see
system.mem_ctrls.wrQLenPdf::3                       1                       # What write queue length does an incoming req see
system.mem_ctrls.wrQLenPdf::4                       1                       # What write queue length does an incoming req see
system.mem_ctrls.wrQLenPdf::5                       1                       # What write queue length does an incoming req see
system.mem_ctrls.wrQLenPdf::6                       1                       # What write queue length does an incoming req see
system.mem_ctrls.wrQLenPdf::7                       1                       # What write queue length does an incoming req see
system.mem_ctrls.wrQLenPdf::8                       1                       # What write queue length does an incoming req see
system.mem_ctrls.wrQLenPdf::9                       1                       # What write queue length does an incoming req see
system.mem_ctrls.wrQLenPdf::10                      1                       # What write queue length does an incoming req see
system.mem_ctrls.wrQLenPdf::11                      1                       # What write queue length does an incoming req see
system.mem_ctrls.wrQLenPdf::12                      1                       # What write queue length does an incoming req see
system.mem_ctrls.wrQLenPdf::13                      1                       # What write queue length does an incoming req see
system.mem_ctrls.wrQLenPdf::14                      1                       # What write queue length does an incoming req see
system.mem_ctrls.wrQLenPdf::15                  12676                       # What write queue length does an incoming req see
system.mem_ctrls.wrQLenPdf::16                  13791                       # What write queue length does an incoming req see
system.mem_ctrls.wrQLenPdf::17                  42110                       # What write queue length does an incoming req see
system.mem_ctrls.wrQLenPdf::18                  47682                       # What write queue length does an incoming req see
system.mem_ctrls.wrQLenPdf::19                  48082                       # What write queue length does an incoming req see
system.mem_ctrls.wrQLenPdf::20                  48135                       # What write queue length does an incoming req see
system.mem_ctrls.wrQLenPdf::21                  48138                       # What write queue length does an incoming req see
system.mem_ctrls.wrQLenPdf::22                  48155                       # What write queue length does an incoming req see
system.mem_ctrls.wrQLenPdf::23                  48167                       # What write queue length does an incoming req see
system.mem_ctrls.wrQLenPdf::24                  48164                       # What write queue length does an incoming req see
system.mem_ctrls.wrQLenPdf::25                  48242                       # What write queue length does an incoming req see
system.mem_ctrls.wrQLenPdf::26                  48425                       # What write queue length does an incoming req see
system.mem_ctrls.wrQLenPdf::27                  48511                       # What write queue length does an incoming req see
system.mem_ctrls.wrQLenPdf::28                  48559                       # What write queue length does an incoming req see
system.mem_ctrls.wrQLenPdf::29                  49013                       # What write queue length does an incoming req see
system.mem_ctrls.wrQLenPdf::30                  49067                       # What write queue length does an incoming req see
system.mem_ctrls.wrQLenPdf::31                  48844                       # What write queue length does an incoming req see
system.mem_ctrls.wrQLenPdf::32                  48830                       # What write queue length does an incoming req see
system.mem_ctrls.wrQLenPdf::33                   7498                       # What write queue length does an incoming req see
system.mem_ctrls.wrQLenPdf::34                    479                       # What write queue length does an incoming req see
system.mem_ctrls.wrQLenPdf::35                    611                       # What write queue length does an incoming req see
system.mem_ctrls.wrQLenPdf::36                    615                       # What write queue length does an incoming req see
system.mem_ctrls.wrQLenPdf::37                    571                       # What write queue length does an incoming req see
system.mem_ctrls.wrQLenPdf::38                    511                       # What write queue length does an incoming req see
system.mem_ctrls.wrQLenPdf::39                    405                       # What write queue length does an incoming req see
system.mem_ctrls.wrQLenPdf::40                    375                       # What write queue length does an incoming req see
system.mem_ctrls.wrQLenPdf::41                    372                       # What write queue length does an incoming req see
system.mem_ctrls.wrQLenPdf::42                    358                       # What write queue length does an incoming req see
system.mem_ctrls.wrQLenPdf::43                    403                       # What write queue length does an incoming req see
system.mem_ctrls.wrQLenPdf::44                    355                       # What write queue length does an incoming req see
system.mem_ctrls.wrQLenPdf::45                    250                       # What write queue length does an incoming req see
system.mem_ctrls.wrQLenPdf::46                    226                       # What write queue length does an incoming req see
system.mem_ctrls.wrQLenPdf::47                    296                       # What write queue length does an incoming req see
system.mem_ctrls.wrQLenPdf::48                    355                       # What write queue length does an incoming req see
system.mem_ctrls.wrQLenPdf::49                    352                       # What write queue length does an incoming req see
system.mem_ctrls.wrQLenPdf::50                    357                       # What write queue length does an incoming req see
system.mem_ctrls.wrQLenPdf::51                    412                       # What write queue length does an incoming req see
system.mem_ctrls.wrQLenPdf::52                    455                       # What write queue length does an incoming req see
system.mem_ctrls.wrQLenPdf::53                    496                       # What write queue length does an incoming req see
system.mem_ctrls.wrQLenPdf::54                    479                       # What write queue length does an incoming req see
system.mem_ctrls.wrQLenPdf::55                    514                       # What write queue length does an incoming req see
system.mem_ctrls.wrQLenPdf::56                    557                       # What write queue length does an incoming req see
system.mem_ctrls.wrQLenPdf::57                    710                       # What write queue length does an incoming req see
system.mem_ctrls.wrQLenPdf::58                    731                       # What write queue length does an incoming req see
system.mem_ctrls.wrQLenPdf::59                    737                       # What write queue length does an incoming req see
system.mem_ctrls.wrQLenPdf::60                    932                       # What write queue length does an incoming req see
system.mem_ctrls.wrQLenPdf::61                   1605                       # What write queue length does an incoming req see
system.mem_ctrls.wrQLenPdf::62                  13171                       # What write queue length does an incoming req see
system.mem_ctrls.wrQLenPdf::63                  12007                       # What write queue length does an incoming req see
system.mem_ctrls.bytesPerActivate::samples      1154151                       # Bytes accessed per row activation
system.mem_ctrls.bytesPerActivate::mean    401.855050                       # Bytes accessed per row activation
system.mem_ctrls.bytesPerActivate::gmean   281.892582                       # Bytes accessed per row activation
system.mem_ctrls.bytesPerActivate::stdev   344.096248                       # Bytes accessed per row activation
system.mem_ctrls.bytesPerActivate::0-127        18153      1.57%      1.57% # Bytes accessed per row activation
system.mem_ctrls.bytesPerActivate::128-255       475809     41.23%     42.80% # Bytes accessed per row activation
system.mem_ctrls.bytesPerActivate::256-383       214020     18.54%     61.34% # Bytes accessed per row activation
system.mem_ctrls.bytesPerActivate::384-511        95098      8.24%     69.58% # Bytes accessed per row activation
system.mem_ctrls.bytesPerActivate::512-639        50686      4.39%     73.97% # Bytes accessed per row activation
system.mem_ctrls.bytesPerActivate::640-767        38096      3.30%     77.27% # Bytes accessed per row activation
system.mem_ctrls.bytesPerActivate::768-895        26561      2.30%     79.58% # Bytes accessed per row activation
system.mem_ctrls.bytesPerActivate::896-1023        22134      1.92%     81.49% # Bytes accessed per row activation
system.mem_ctrls.bytesPerActivate::1024-1151       213594     18.51%    100.00% # Bytes accessed per row activation
system.mem_ctrls.bytesPerActivate::total      1154151                       # Bytes accessed per row activation
system.mem_ctrls.rdPerTurnAround::samples        50342                       # Reads before turning the bus around for writes
system.mem_ctrls.rdPerTurnAround::mean     127.232629                       # Reads before turning the bus around for writes
system.mem_ctrls.rdPerTurnAround::stdev   4609.902011                       # Reads before turning the bus around for writes
system.mem_ctrls.rdPerTurnAround::0-32767        50341    100.00%    100.00% # Reads before turning the bus around for writes
system.mem_ctrls.rdPerTurnAround::1.01581e+06-1.04858e+06            1      0.00%    100.00% # Reads before turning the bus around for writes
system.mem_ctrls.rdPerTurnAround::total         50342                       # Reads before turning the bus around for writes
system.mem_ctrls.wrPerTurnAround::samples        50342                       # Writes before turning the bus around for reads
system.mem_ctrls.wrPerTurnAround::mean      16.721227                       # Writes before turning the bus around for reads
system.mem_ctrls.wrPerTurnAround::gmean     16.657353                       # Writes before turning the bus around for reads
system.mem_ctrls.wrPerTurnAround::stdev      2.524482                       # Writes before turning the bus around for reads
system.mem_ctrls.wrPerTurnAround::16-23         49979     99.28%     99.28% # Writes before turning the bus around for reads
system.mem_ctrls.wrPerTurnAround::24-31           325      0.65%     99.92% # Writes before turning the bus around for reads
system.mem_ctrls.wrPerTurnAround::32-39            27      0.05%     99.98% # Writes before turning the bus around for reads
system.mem_ctrls.wrPerTurnAround::40-47             3      0.01%     99.98% # Writes before turning the bus around for reads
system.mem_ctrls.wrPerTurnAround::72-79             1      0.00%     99.99% # Writes before turning the bus around for reads
system.mem_ctrls.wrPerTurnAround::88-95             2      0.00%     99.99% # Writes before turning the bus around for reads
system.mem_ctrls.wrPerTurnAround::104-111            1      0.00%     99.99% # Writes before turning the bus around for reads
system.mem_ctrls.wrPerTurnAround::120-127            1      0.00%     99.99% # Writes before turning the bus around for reads
system.mem_ctrls.wrPerTurnAround::128-135            1      0.00%    100.00% # Writes before turning the bus around for reads
system.mem_ctrls.wrPerTurnAround::152-159            1      0.00%    100.00% # Writes before turning the bus around for reads
system.mem_ctrls.wrPerTurnAround::408-415            1      0.00%    100.00% # Writes before turning the bus around for reads
system.mem_ctrls.wrPerTurnAround::total         50342                       # Writes before turning the bus around for reads
system.mem_ctrls.totQLat                 122417641312                       # Total ticks spent queuing
system.mem_ctrls.totMemAccLat            242514222562                       # Total ticks spent from burst creation until serviced by the DRAM
system.mem_ctrls.totBusLat                32025755000                       # Total ticks spent in databus transfers
system.mem_ctrls.avgQLat                     19112.37                       # Average queueing delay per DRAM burst
system.mem_ctrls.avgBusLat                    5000.00                       # Average bus latency per DRAM burst
system.mem_ctrls.avgMemAccLat                37862.37                       # Average memory access latency per DRAM burst
system.mem_ctrls.avgRdBW                       155.37                       # Average DRAM read bandwidth in MiByte/s
system.mem_ctrls.avgWrBW                        20.42                       # Average achieved write bandwidth in MiByte/s
system.mem_ctrls.avgRdBWSys                    156.33                       # Average system read bandwidth in MiByte/s
system.mem_ctrls.avgWrBWSys                     20.57                       # Average system write bandwidth in MiByte/s
system.mem_ctrls.peakBW                      12800.00                       # Theoretical peak bandwidth in MiByte/s
system.mem_ctrls.busUtil                         1.37                       # Data bus utilization in percentage
system.mem_ctrls.busUtilRead                     1.21                       # Data bus utilization in percentage for reads
system.mem_ctrls.busUtilWrite                    0.16                       # Data bus utilization in percentage for writes
system.mem_ctrls.avgRdQLen                       2.00                       # Average read queue length when enqueuing
system.mem_ctrls.avgWrQLen                      26.14                       # Average write queue length when enqueuing
system.mem_ctrls.readRowHits                  5427787                       # Number of row buffer hits during reads
system.mem_ctrls.writeRowHits                  664986                       # Number of row buffer hits during writes
system.mem_ctrls.readRowHitRate                 84.74                       # Row buffer hit rate for reads
system.mem_ctrls.writeRowHitRate                79.00                       # Row buffer hit rate for writes
system.mem_ctrls.avgGap                     723550.82                       # Average gap between requests
system.mem_ctrls.pageHitRate                    84.07                       # Row buffer hit rate, read and write combined
system.mem_ctrls_0.actEnergy               3152874060                       # Energy for activate commands per rank (pJ)
system.mem_ctrls_0.preEnergy               1675773330                       # Energy for precharge commands per rank (pJ)
system.mem_ctrls_0.readEnergy             20261720640                       # Energy for read commands per rank (pJ)
system.mem_ctrls_0.writeEnergy             2028147480                       # Energy for write commands per rank (pJ)
system.mem_ctrls_0.refreshEnergy         32472045840.000004                       # Energy for refresh commands per rank (pJ)
system.mem_ctrls_0.actBackEnergy          42276470790                       # Energy for active background per rank (pJ)
system.mem_ctrls_0.preBackEnergy           1163945760                       # Energy for precharge background per rank (pJ)
system.mem_ctrls_0.actPowerDownEnergy    121798268040                       # Energy for active power-down per rank (pJ)
system.mem_ctrls_0.prePowerDownEnergy     14800009440                       # Energy for precharge power-down per rank (pJ)
system.mem_ctrls_0.selfRefreshEnergy     537643739100                       # Energy for self refresh per rank (pJ)
system.mem_ctrls_0.totalEnergy           777275324430                       # Total energy per rank (pJ)
system.mem_ctrls_0.averagePower            294.600549                       # Core power per rank (mW)
system.mem_ctrls_0.totalIdleTime         2542656858242                       # Total Idle time Per DRAM Rank
system.mem_ctrls_0.memoryStateTime::IDLE    910954500                       # Time in different power states
system.mem_ctrls_0.memoryStateTime::REF   13745120000                       # Time in different power states
system.mem_ctrls_0.memoryStateTime::SREF 2237013131750                       # Time in different power states
system.mem_ctrls_0.memoryStateTime::PRE_PDN  38540747242                       # Time in different power states
system.mem_ctrls_0.memoryStateTime::ACT   81090223008                       # Time in different power states
system.mem_ctrls_0.memoryStateTime::ACT_PDN 267104018000                       # Time in different power states
system.mem_ctrls_1.actEnergy               5087814060                       # Energy for activate commands per rank (pJ)
system.mem_ctrls_1.preEnergy               2704229715                       # Energy for precharge commands per rank (pJ)
system.mem_ctrls_1.readEnergy             25471057500                       # Energy for read commands per rank (pJ)
system.mem_ctrls_1.writeEnergy             2365944120                       # Energy for write commands per rank (pJ)
system.mem_ctrls_1.refreshEnergy         32328220080.000004                       # Energy for refresh commands per rank (pJ)
system.mem_ctrls_1.actBackEnergy          47904380040                       # Energy for active background per rank (pJ)
system.mem_ctrls_1.preBackEnergy           1162852320                       # Energy for precharge background per rank (pJ)
system.mem_ctrls_1.actPowerDownEnergy    119007936210                       # Energy for active power-down per rank (pJ)
system.mem_ctrls_1.prePowerDownEnergy     11760179520                       # Energy for precharge power-down per rank (pJ)
system.mem_ctrls_1.selfRefreshEnergy     538040914080                       # Energy for self refresh per rank (pJ)
system.mem_ctrls_1.totalEnergy           785836858095                       # Total energy per rank (pJ)
system.mem_ctrls_1.averagePower            297.845516                       # Core power per rank (mW)
system.mem_ctrls_1.totalIdleTime         2530316202500                       # Total Idle time Per DRAM Rank
system.mem_ctrls_1.memoryStateTime::IDLE    872353250                       # Time in different power states
system.mem_ctrls_1.memoryStateTime::REF   13684028000                       # Time in different power states
system.mem_ctrls_1.memoryStateTime::SREF 2238707238750                       # Time in different power states
system.mem_ctrls_1.memoryStateTime::PRE_PDN  30625496500                       # Time in different power states
system.mem_ctrls_1.memoryStateTime::ACT   93531610750                       # Time in different power states
system.mem_ctrls_1.memoryStateTime::ACT_PDN 260983467250                       # Time in different power states
system.pwrStateResidencyTicks::UNDEFINED 2638404194500                       # Cumulative time (in ticks) in various power states
system.bridge.pwrStateResidencyTicks::UNDEFINED 2638404194500                       # Cumulative time (in ticks) in various power states
system.cpu_voltage_domain.voltage                   1                       # Voltage in Volts
system.cpu_clk_domain.clock                       500                       # Clock period in ticks
system.cpu.dtb.fetch_hits                           0                       # ITB hits
system.cpu.dtb.fetch_misses                         0                       # ITB misses
system.cpu.dtb.fetch_acv                            0                       # ITB acv
system.cpu.dtb.fetch_accesses                       0                       # ITB accesses
system.cpu.dtb.read_hits                     17012388                       # DTB read hits
system.cpu.dtb.read_misses                      12434                       # DTB read misses
system.cpu.dtb.read_acv                            98                       # DTB read access violations
system.cpu.dtb.read_accesses                   817021                       # DTB read accesses
system.cpu.dtb.write_hits                     8894439                       # DTB write hits
system.cpu.dtb.write_misses                      1307                       # DTB write misses
system.cpu.dtb.write_acv                          169                       # DTB write access violations
system.cpu.dtb.write_accesses                  324494                       # DTB write accesses
system.cpu.dtb.data_hits                     25906827                       # DTB hits
system.cpu.dtb.data_misses                      13741                       # DTB misses
system.cpu.dtb.data_acv                           267                       # DTB access violations
system.cpu.dtb.data_accesses                  1141515                       # DTB accesses
system.cpu.itb.fetch_hits                     5687304                       # ITB hits
system.cpu.itb.fetch_misses                      6040                       # ITB misses
system.cpu.itb.fetch_acv                            1                       # ITB acv
system.cpu.itb.fetch_accesses                 5693344                       # ITB accesses
system.cpu.itb.read_hits                            0                       # DTB read hits
system.cpu.itb.read_misses                          0                       # DTB read misses
system.cpu.itb.read_acv                             0                       # DTB read access violations
system.cpu.itb.read_accesses                        0                       # DTB read accesses
system.cpu.itb.write_hits                           0                       # DTB write hits
system.cpu.itb.write_misses                         0                       # DTB write misses
system.cpu.itb.write_acv                            0                       # DTB write access violations
system.cpu.itb.write_accesses                       0                       # DTB write accesses
system.cpu.itb.data_hits                            0                       # DTB hits
system.cpu.itb.data_misses                          0                       # DTB misses
system.cpu.itb.data_acv                             0                       # DTB access violations
system.cpu.itb.data_accesses                        0                       # DTB accesses
system.cpu.numPwrStateTransitions               14134                       # Number of power state transitions
system.cpu.pwrStateClkGateDist::samples          7067                       # Distribution of time spent in the clock gated state
system.cpu.pwrStateClkGateDist::mean     310712314.489883                       # Distribution of time spent in the clock gated state
system.cpu.pwrStateClkGateDist::stdev    451792321.184059                       # Distribution of time spent in the clock gated state
system.cpu.pwrStateClkGateDist::1000-5e+10         7067    100.00%    100.00% # Distribution of time spent in the clock gated state
system.cpu.pwrStateClkGateDist::min_value        12000                       # Distribution of time spent in the clock gated state
system.cpu.pwrStateClkGateDist::max_value   2000000000                       # Distribution of time spent in the clock gated state
system.cpu.pwrStateClkGateDist::total            7067                       # Distribution of time spent in the clock gated state
system.cpu.pwrStateResidencyTicks::ON    442600268000                       # Cumulative time (in ticks) in various power states
system.cpu.pwrStateResidencyTicks::CLK_GATED 2195803926500                       # Cumulative time (in ticks) in various power states
system.cpu.numCycles                       5276808389                       # number of cpu cycles simulated
system.cpu.numWorkItemsStarted                      0                       # number of work items this cpu started
system.cpu.numWorkItemsCompleted                    0                       # number of work items this cpu completed
system.cpu.kern.inst.arm                            0                       # number of arm instructions executed
system.cpu.kern.inst.quiesce                     7067                       # number of quiesce instructions executed
system.cpu.kern.callpal::cserve                     1      0.00%      0.00% # number of callpals executed
system.cpu.kern.callpal::wrmces                     1      0.00%      0.00% # number of callpals executed
system.cpu.kern.callpal::wrfen                      1      0.00%      0.00% # number of callpals executed
system.cpu.kern.callpal::wrvptptr                   1      0.00%      0.00% # number of callpals executed
system.cpu.kern.callpal::swpctx                  4478      2.07%      2.07% # number of callpals executed
system.cpu.kern.callpal::tbi                       65      0.03%      2.10% # number of callpals executed
system.cpu.kern.callpal::wrent                      7      0.00%      2.10% # number of callpals executed
system.cpu.kern.callpal::swpipl                198989     91.81%     93.91% # number of callpals executed
system.cpu.kern.callpal::rdps                    6145      2.84%     96.75% # number of callpals executed
system.cpu.kern.callpal::wrkgp                      1      0.00%     96.75% # number of callpals executed
system.cpu.kern.callpal::wrusp                      8      0.00%     96.75% # number of callpals executed
system.cpu.kern.callpal::rdusp                     10      0.00%     96.76% # number of callpals executed
system.cpu.kern.callpal::whami                      2      0.00%     96.76% # number of callpals executed
system.cpu.kern.callpal::rti                     6231      2.87%     99.63% # number of callpals executed
system.cpu.kern.callpal::callsys                  559      0.26%     99.89% # number of callpals executed
system.cpu.kern.callpal::imb                      235      0.11%    100.00% # number of callpals executed
system.cpu.kern.callpal::total                 216734                       # number of callpals executed
system.cpu.kern.inst.hwrei                     239532                       # number of hwrei instructions executed
system.cpu.kern.mode_switch::kernel              6914                       # number of protection mode switches
system.cpu.kern.mode_switch::user                1967                       # number of protection mode switches
system.cpu.kern.mode_switch::idle                2301                       # number of protection mode switches
system.cpu.kern.mode_good::kernel                2026                      
system.cpu.kern.mode_good::user                  1967                      
system.cpu.kern.mode_good::idle                    59                      
system.cpu.kern.mode_switch_good::kernel     0.293029                       # fraction of useful protection mode switches
system.cpu.kern.mode_switch_good::user              1                       # fraction of useful protection mode switches
system.cpu.kern.mode_switch_good::idle       0.025641                       # fraction of useful protection mode switches
system.cpu.kern.mode_switch_good::total      0.362368                       # fraction of useful protection mode switches
system.cpu.kern.mode_ticks::kernel       352457294000     13.36%     13.36% # number of ticks spent at the given mode
system.cpu.kern.mode_ticks::user          10148328500      0.38%     13.74% # number of ticks spent at the given mode
system.cpu.kern.mode_ticks::idle         2275796443000     86.26%    100.00% # number of ticks spent at the given mode
system.cpu.kern.swap_context                     4479                       # number of times the context was actually changed
system.cpu.kern.ipl_count::0                    83081     39.95%     39.95% # number of times we switched to this ipl
system.cpu.kern.ipl_count::21                     117      0.06%     40.01% # number of times we switched to this ipl
system.cpu.kern.ipl_count::22                    2630      1.26%     41.27% # number of times we switched to this ipl
system.cpu.kern.ipl_count::31                  122140     58.73%    100.00% # number of times we switched to this ipl
system.cpu.kern.ipl_count::total               207968                       # number of times we switched to this ipl
system.cpu.kern.ipl_good::0                     81544     49.17%     49.17% # number of times we switched to this ipl from a different ipl
system.cpu.kern.ipl_good::21                      117      0.07%     49.24% # number of times we switched to this ipl from a different ipl
system.cpu.kern.ipl_good::22                     2630      1.59%     50.83% # number of times we switched to this ipl from a different ipl
system.cpu.kern.ipl_good::31                    81544     49.17%    100.00% # number of times we switched to this ipl from a different ipl
system.cpu.kern.ipl_good::total                165835                       # number of times we switched to this ipl from a different ipl
system.cpu.kern.ipl_ticks::0             2487195947500     94.27%     94.27% # number of cycles we spent at this ipl
system.cpu.kern.ipl_ticks::21               239581000      0.01%     94.28% # number of cycles we spent at this ipl
system.cpu.kern.ipl_ticks::22              1717793500      0.07%     94.34% # number of cycles we spent at this ipl
system.cpu.kern.ipl_ticks::31            149248745500      5.66%    100.00% # number of cycles we spent at this ipl
system.cpu.kern.ipl_ticks::total         2638402067500                       # number of cycles we spent at this ipl
system.cpu.kern.ipl_used::0                  0.981500                       # fraction of swpipl calls that actually changed the ipl
system.cpu.kern.ipl_used::21                        1                       # fraction of swpipl calls that actually changed the ipl
system.cpu.kern.ipl_used::22                        1                       # fraction of swpipl calls that actually changed the ipl
system.cpu.kern.ipl_used::31                 0.667627                       # fraction of swpipl calls that actually changed the ipl
system.cpu.kern.ipl_used::total              0.797406                       # fraction of swpipl calls that actually changed the ipl
system.cpu.committedInsts                    97460359                       # Number of instructions committed
system.cpu.committedOps                      97460359                       # Number of ops (including micro ops) committed
system.cpu.num_int_alu_accesses              94452659                       # Number of integer alu accesses
system.cpu.num_fp_alu_accesses                 424308                       # Number of float alu accesses
system.cpu.num_vec_alu_accesses                     0                       # Number of vector alu accesses
system.cpu.num_func_calls                     2921184                       # number of times a function call or return occured
system.cpu.num_conditional_control_insts     12572514                       # number of instructions that are conditional controls
system.cpu.num_int_insts                     94452659                       # number of integer instructions
system.cpu.num_fp_insts                        424308                       # number of float instructions
system.cpu.num_vec_insts                            0                       # number of vector instructions
system.cpu.num_int_register_reads           129786659                       # number of times the integer registers were read
system.cpu.num_int_register_writes           71780930                       # number of times the integer registers were written
system.cpu.num_fp_register_reads               176795                       # number of times the floating registers were read
system.cpu.num_fp_register_writes              179759                       # number of times the floating registers were written
system.cpu.num_vec_register_reads                   0                       # number of times the vector registers were read
system.cpu.num_vec_register_writes                  0                       # number of times the vector registers were written
system.cpu.num_mem_refs                      25965582                       # number of memory refs
system.cpu.num_load_insts                    17053601                       # Number of load instructions
system.cpu.num_store_insts                    8911981                       # Number of store instructions
system.cpu.num_idle_cycles               4391607852.998336                       # Number of idle cycles
system.cpu.num_busy_cycles               885200536.001665                       # Number of busy cycles
system.cpu.not_idle_fraction                 0.167753                       # Percentage of non-idle cycles
system.cpu.idle_fraction                     0.832247                       # Percentage of idle cycles
system.cpu.Branches                          16110493                       # Number of branches fetched
system.cpu.op_class::No_OpClass               1595298      1.64%      1.64% # Class of executed instruction
system.cpu.op_class::IntAlu                  67981542     69.74%     71.38% # Class of executed instruction
system.cpu.op_class::IntMult                   187021      0.19%     71.57% # Class of executed instruction
system.cpu.op_class::IntDiv                         0      0.00%     71.57% # Class of executed instruction
system.cpu.op_class::FloatAdd                  117362      0.12%     71.69% # Class of executed instruction
system.cpu.op_class::FloatCmp                       0      0.00%     71.69% # Class of executed instruction
system.cpu.op_class::FloatCvt                       0      0.00%     71.69% # Class of executed instruction
system.cpu.op_class::FloatMult                      0      0.00%     71.69% # Class of executed instruction
system.cpu.op_class::FloatMultAcc                   0      0.00%     71.69% # Class of executed instruction
system.cpu.op_class::FloatDiv                    4179      0.00%     71.70% # Class of executed instruction
system.cpu.op_class::FloatMisc                      0      0.00%     71.70% # Class of executed instruction
system.cpu.op_class::FloatSqrt                      0      0.00%     71.70% # Class of executed instruction
system.cpu.op_class::SimdAdd                        0      0.00%     71.70% # Class of executed instruction
system.cpu.op_class::SimdAddAcc                     0      0.00%     71.70% # Class of executed instruction
system.cpu.op_class::SimdAlu                        0      0.00%     71.70% # Class of executed instruction
system.cpu.op_class::SimdCmp                        0      0.00%     71.70% # Class of executed instruction
system.cpu.op_class::SimdCvt                        0      0.00%     71.70% # Class of executed instruction
system.cpu.op_class::SimdMisc                       0      0.00%     71.70% # Class of executed instruction
system.cpu.op_class::SimdMult                       0      0.00%     71.70% # Class of executed instruction
system.cpu.op_class::SimdMultAcc                    0      0.00%     71.70% # Class of executed instruction
system.cpu.op_class::SimdShift                      0      0.00%     71.70% # Class of executed instruction
system.cpu.op_class::SimdShiftAcc                   0      0.00%     71.70% # Class of executed instruction
system.cpu.op_class::SimdSqrt                       0      0.00%     71.70% # Class of executed instruction
system.cpu.op_class::SimdFloatAdd                   0      0.00%     71.70% # Class of executed instruction
system.cpu.op_class::SimdFloatAlu                   0      0.00%     71.70% # Class of executed instruction
system.cpu.op_class::SimdFloatCmp                   0      0.00%     71.70% # Class of executed instruction
system.cpu.op_class::SimdFloatCvt                   0      0.00%     71.70% # Class of executed instruction
system.cpu.op_class::SimdFloatDiv                   0      0.00%     71.70% # Class of executed instruction
system.cpu.op_class::SimdFloatMisc                  0      0.00%     71.70% # Class of executed instruction
system.cpu.op_class::SimdFloatMult                  0      0.00%     71.70% # Class of executed instruction
system.cpu.op_class::SimdFloatMultAcc               0      0.00%     71.70% # Class of executed instruction
system.cpu.op_class::SimdFloatSqrt                  0      0.00%     71.70% # Class of executed instruction
system.cpu.op_class::MemRead                 17356423     17.81%     89.50% # Class of executed instruction
system.cpu.op_class::MemWrite                 8838642      9.07%     98.57% # Class of executed instruction
system.cpu.op_class::FloatMemRead              154959      0.16%     98.73% # Class of executed instruction
system.cpu.op_class::FloatMemWrite             147808      0.15%     98.88% # Class of executed instruction
system.cpu.op_class::IprAccess                1091133      1.12%    100.00% # Class of executed instruction
system.cpu.op_class::InstPrefetch                   0      0.00%    100.00% # Class of executed instruction
system.cpu.op_class::total                   97474367                       # Class of executed instruction
system.cpu.dcache.tags.pwrStateResidencyTicks::UNDEFINED 2638404194500                       # Cumulative time (in ticks) in various power states
system.cpu.dcache.tags.replacements           2815872                       # number of replacements
system.cpu.dcache.tags.tagsinuse           127.996954                       # Cycle average of tags in use
system.cpu.dcache.tags.total_refs            23104792                       # Total number of references to valid blocks.
system.cpu.dcache.tags.sampled_refs           2815872                       # Sample count of references to valid blocks.
system.cpu.dcache.tags.avg_refs              8.205200                       # Average number of references to valid blocks.
system.cpu.dcache.tags.warmup_cycle          79751500                       # Cycle when the warmup percentage was hit.
system.cpu.dcache.tags.occ_blocks::cpu.data   127.996954                       # Average occupied blocks per requestor
system.cpu.dcache.tags.occ_percent::cpu.data     0.999976                       # Average percentage of cache occupancy
system.cpu.dcache.tags.occ_percent::total     0.999976                       # Average percentage of cache occupancy
system.cpu.dcache.tags.occ_task_id_blocks::1024          128                       # Occupied blocks per task id
system.cpu.dcache.tags.age_task_id_blocks_1024::0           34                       # Occupied blocks per task id
system.cpu.dcache.tags.age_task_id_blocks_1024::1           82                       # Occupied blocks per task id
system.cpu.dcache.tags.age_task_id_blocks_1024::2           12                       # Occupied blocks per task id
system.cpu.dcache.tags.occ_task_id_percent::1024            1                       # Percentage of cache occupancy per task id
system.cpu.dcache.tags.tag_accesses         832510752                       # Number of tag accesses
system.cpu.dcache.tags.data_accesses        832510752                       # Number of data accesses
system.cpu.dcache.pwrStateResidencyTicks::UNDEFINED 2638404194500                       # Cumulative time (in ticks) in various power states
system.cpu.dcache.ReadReq_hits::cpu.data     14210872                       # number of ReadReq hits
system.cpu.dcache.ReadReq_hits::total        14210872                       # number of ReadReq hits
system.cpu.dcache.WriteReq_hits::cpu.data      8305918                       # number of WriteReq hits
system.cpu.dcache.WriteReq_hits::total        8305918                       # number of WriteReq hits
system.cpu.dcache.LoadLockedReq_hits::cpu.data       279285                       # number of LoadLockedReq hits
system.cpu.dcache.LoadLockedReq_hits::total       279285                       # number of LoadLockedReq hits
system.cpu.dcache.StoreCondReq_hits::cpu.data       315877                       # number of StoreCondReq hits
system.cpu.dcache.StoreCondReq_hits::total       315877                       # number of StoreCondReq hits
system.cpu.dcache.demand_hits::cpu.data      22516790                       # number of demand (read+write) hits
system.cpu.dcache.demand_hits::total         22516790                       # number of demand (read+write) hits
system.cpu.dcache.overall_hits::cpu.data     22516790                       # number of overall hits
system.cpu.dcache.overall_hits::total        22516790                       # number of overall hits
system.cpu.dcache.ReadReq_misses::cpu.data      2506287                       # number of ReadReq misses
system.cpu.dcache.ReadReq_misses::total       2506287                       # number of ReadReq misses
system.cpu.dcache.WriteReq_misses::cpu.data       272070                       # number of WriteReq misses
system.cpu.dcache.WriteReq_misses::total       272070                       # number of WriteReq misses
system.cpu.dcache.LoadLockedReq_misses::cpu.data        37652                       # number of LoadLockedReq misses
system.cpu.dcache.LoadLockedReq_misses::total        37652                       # number of LoadLockedReq misses
system.cpu.dcache.demand_misses::cpu.data      2778357                       # number of demand (read+write) misses
system.cpu.dcache.demand_misses::total        2778357                       # number of demand (read+write) misses
system.cpu.dcache.overall_misses::cpu.data      2778357                       # number of overall misses
system.cpu.dcache.overall_misses::total       2778357                       # number of overall misses
system.cpu.dcache.ReadReq_miss_latency::cpu.data 203690950000                       # number of ReadReq miss cycles
system.cpu.dcache.ReadReq_miss_latency::total 203690950000                       # number of ReadReq miss cycles
system.cpu.dcache.WriteReq_miss_latency::cpu.data  22622714500                       # number of WriteReq miss cycles
system.cpu.dcache.WriteReq_miss_latency::total  22622714500                       # number of WriteReq miss cycles
system.cpu.dcache.LoadLockedReq_miss_latency::cpu.data   2438738000                       # number of LoadLockedReq miss cycles
system.cpu.dcache.LoadLockedReq_miss_latency::total   2438738000                       # number of LoadLockedReq miss cycles
system.cpu.dcache.demand_miss_latency::cpu.data 226313664500                       # number of demand (read+write) miss cycles
system.cpu.dcache.demand_miss_latency::total 226313664500                       # number of demand (read+write) miss cycles
system.cpu.dcache.overall_miss_latency::cpu.data 226313664500                       # number of overall miss cycles
system.cpu.dcache.overall_miss_latency::total 226313664500                       # number of overall miss cycles
system.cpu.dcache.ReadReq_accesses::cpu.data     16717159                       # number of ReadReq accesses(hits+misses)
system.cpu.dcache.ReadReq_accesses::total     16717159                       # number of ReadReq accesses(hits+misses)
system.cpu.dcache.WriteReq_accesses::cpu.data      8577988                       # number of WriteReq accesses(hits+misses)
system.cpu.dcache.WriteReq_accesses::total      8577988                       # number of WriteReq accesses(hits+misses)
system.cpu.dcache.LoadLockedReq_accesses::cpu.data       316937                       # number of LoadLockedReq accesses(hits+misses)
system.cpu.dcache.LoadLockedReq_accesses::total       316937                       # number of LoadLockedReq accesses(hits+misses)
system.cpu.dcache.StoreCondReq_accesses::cpu.data       315877                       # number of StoreCondReq accesses(hits+misses)
system.cpu.dcache.StoreCondReq_accesses::total       315877                       # number of StoreCondReq accesses(hits+misses)
system.cpu.dcache.demand_accesses::cpu.data     25295147                       # number of demand (read+write) accesses
system.cpu.dcache.demand_accesses::total     25295147                       # number of demand (read+write) accesses
system.cpu.dcache.overall_accesses::cpu.data     25295147                       # number of overall (read+write) accesses
system.cpu.dcache.overall_accesses::total     25295147                       # number of overall (read+write) accesses
system.cpu.dcache.ReadReq_miss_rate::cpu.data     0.149923                       # miss rate for ReadReq accesses
system.cpu.dcache.ReadReq_miss_rate::total     0.149923                       # miss rate for ReadReq accesses
system.cpu.dcache.WriteReq_miss_rate::cpu.data     0.031717                       # miss rate for WriteReq accesses
system.cpu.dcache.WriteReq_miss_rate::total     0.031717                       # miss rate for WriteReq accesses
system.cpu.dcache.LoadLockedReq_miss_rate::cpu.data     0.118800                       # miss rate for LoadLockedReq accesses
system.cpu.dcache.LoadLockedReq_miss_rate::total     0.118800                       # miss rate for LoadLockedReq accesses
system.cpu.dcache.demand_miss_rate::cpu.data     0.109838                       # miss rate for demand accesses
system.cpu.dcache.demand_miss_rate::total     0.109838                       # miss rate for demand accesses
system.cpu.dcache.overall_miss_rate::cpu.data     0.109838                       # miss rate for overall accesses
system.cpu.dcache.overall_miss_rate::total     0.109838                       # miss rate for overall accesses
system.cpu.dcache.ReadReq_avg_miss_latency::cpu.data 81271.997181                       # average ReadReq miss latency
system.cpu.dcache.ReadReq_avg_miss_latency::total 81271.997181                       # average ReadReq miss latency
system.cpu.dcache.WriteReq_avg_miss_latency::cpu.data 83150.345499                       # average WriteReq miss latency
system.cpu.dcache.WriteReq_avg_miss_latency::total 83150.345499                       # average WriteReq miss latency
system.cpu.dcache.LoadLockedReq_avg_miss_latency::cpu.data 64770.477000                       # average LoadLockedReq miss latency
system.cpu.dcache.LoadLockedReq_avg_miss_latency::total 64770.477000                       # average LoadLockedReq miss latency
system.cpu.dcache.demand_avg_miss_latency::cpu.data 81455.934029                       # average overall miss latency
system.cpu.dcache.demand_avg_miss_latency::total 81455.934029                       # average overall miss latency
system.cpu.dcache.overall_avg_miss_latency::cpu.data 81455.934029                       # average overall miss latency
system.cpu.dcache.overall_avg_miss_latency::total 81455.934029                       # average overall miss latency
system.cpu.dcache.blocked_cycles::no_mshrs            0                       # number of cycles access was blocked
system.cpu.dcache.blocked_cycles::no_targets            0                       # number of cycles access was blocked
system.cpu.dcache.blocked::no_mshrs                 0                       # number of cycles access was blocked
system.cpu.dcache.blocked::no_targets               0                       # number of cycles access was blocked
system.cpu.dcache.avg_blocked_cycles::no_mshrs          nan                       # average number of cycles each access was blocked
system.cpu.dcache.avg_blocked_cycles::no_targets          nan                       # average number of cycles each access was blocked
system.cpu.dcache.writebacks::writebacks       545414                       # number of writebacks
system.cpu.dcache.writebacks::total            545414                       # number of writebacks
system.cpu.dcache.ReadReq_mshr_misses::cpu.data      2506287                       # number of ReadReq MSHR misses
system.cpu.dcache.ReadReq_mshr_misses::total      2506287                       # number of ReadReq MSHR misses
system.cpu.dcache.WriteReq_mshr_misses::cpu.data       272070                       # number of WriteReq MSHR misses
system.cpu.dcache.WriteReq_mshr_misses::total       272070                       # number of WriteReq MSHR misses
system.cpu.dcache.LoadLockedReq_mshr_misses::cpu.data        37652                       # number of LoadLockedReq MSHR misses
system.cpu.dcache.LoadLockedReq_mshr_misses::total        37652                       # number of LoadLockedReq MSHR misses
system.cpu.dcache.demand_mshr_misses::cpu.data      2778357                       # number of demand (read+write) MSHR misses
system.cpu.dcache.demand_mshr_misses::total      2778357                       # number of demand (read+write) MSHR misses
system.cpu.dcache.overall_mshr_misses::cpu.data      2778357                       # number of overall MSHR misses
system.cpu.dcache.overall_mshr_misses::total      2778357                       # number of overall MSHR misses
system.cpu.dcache.ReadReq_mshr_uncacheable::cpu.data         6973                       # number of ReadReq MSHR uncacheable
system.cpu.dcache.ReadReq_mshr_uncacheable::total         6973                       # number of ReadReq MSHR uncacheable
system.cpu.dcache.WriteReq_mshr_uncacheable::cpu.data        10408                       # number of WriteReq MSHR uncacheable
system.cpu.dcache.WriteReq_mshr_uncacheable::total        10408                       # number of WriteReq MSHR uncacheable
system.cpu.dcache.overall_mshr_uncacheable_misses::cpu.data        17381                       # number of overall MSHR uncacheable misses
system.cpu.dcache.overall_mshr_uncacheable_misses::total        17381                       # number of overall MSHR uncacheable misses
system.cpu.dcache.ReadReq_mshr_miss_latency::cpu.data 201184663000                       # number of ReadReq MSHR miss cycles
system.cpu.dcache.ReadReq_mshr_miss_latency::total 201184663000                       # number of ReadReq MSHR miss cycles
system.cpu.dcache.WriteReq_mshr_miss_latency::cpu.data  22350644500                       # number of WriteReq MSHR miss cycles
system.cpu.dcache.WriteReq_mshr_miss_latency::total  22350644500                       # number of WriteReq MSHR miss cycles
system.cpu.dcache.LoadLockedReq_mshr_miss_latency::cpu.data   2401086000                       # number of LoadLockedReq MSHR miss cycles
system.cpu.dcache.LoadLockedReq_mshr_miss_latency::total   2401086000                       # number of LoadLockedReq MSHR miss cycles
system.cpu.dcache.demand_mshr_miss_latency::cpu.data 223535307500                       # number of demand (read+write) MSHR miss cycles
system.cpu.dcache.demand_mshr_miss_latency::total 223535307500                       # number of demand (read+write) MSHR miss cycles
system.cpu.dcache.overall_mshr_miss_latency::cpu.data 223535307500                       # number of overall MSHR miss cycles
system.cpu.dcache.overall_mshr_miss_latency::total 223535307500                       # number of overall MSHR miss cycles
system.cpu.dcache.ReadReq_mshr_uncacheable_latency::cpu.data   1561236500                       # number of ReadReq MSHR uncacheable cycles
system.cpu.dcache.ReadReq_mshr_uncacheable_latency::total   1561236500                       # number of ReadReq MSHR uncacheable cycles
system.cpu.dcache.overall_mshr_uncacheable_latency::cpu.data   1561236500                       # number of overall MSHR uncacheable cycles
system.cpu.dcache.overall_mshr_uncacheable_latency::total   1561236500                       # number of overall MSHR uncacheable cycles
system.cpu.dcache.ReadReq_mshr_miss_rate::cpu.data     0.149923                       # mshr miss rate for ReadReq accesses
system.cpu.dcache.ReadReq_mshr_miss_rate::total     0.149923                       # mshr miss rate for ReadReq accesses
system.cpu.dcache.WriteReq_mshr_miss_rate::cpu.data     0.031717                       # mshr miss rate for WriteReq accesses
system.cpu.dcache.WriteReq_mshr_miss_rate::total     0.031717                       # mshr miss rate for WriteReq accesses
system.cpu.dcache.LoadLockedReq_mshr_miss_rate::cpu.data     0.118800                       # mshr miss rate for LoadLockedReq accesses
system.cpu.dcache.LoadLockedReq_mshr_miss_rate::total     0.118800                       # mshr miss rate for LoadLockedReq accesses
system.cpu.dcache.demand_mshr_miss_rate::cpu.data     0.109838                       # mshr miss rate for demand accesses
system.cpu.dcache.demand_mshr_miss_rate::total     0.109838                       # mshr miss rate for demand accesses
system.cpu.dcache.overall_mshr_miss_rate::cpu.data     0.109838                       # mshr miss rate for overall accesses
system.cpu.dcache.overall_mshr_miss_rate::total     0.109838                       # mshr miss rate for overall accesses
system.cpu.dcache.ReadReq_avg_mshr_miss_latency::cpu.data 80271.997181                       # average ReadReq mshr miss latency
system.cpu.dcache.ReadReq_avg_mshr_miss_latency::total 80271.997181                       # average ReadReq mshr miss latency
system.cpu.dcache.WriteReq_avg_mshr_miss_latency::cpu.data 82150.345499                       # average WriteReq mshr miss latency
system.cpu.dcache.WriteReq_avg_mshr_miss_latency::total 82150.345499                       # average WriteReq mshr miss latency
system.cpu.dcache.LoadLockedReq_avg_mshr_miss_latency::cpu.data 63770.477000                       # average LoadLockedReq mshr miss latency
system.cpu.dcache.LoadLockedReq_avg_mshr_miss_latency::total 63770.477000                       # average LoadLockedReq mshr miss latency
system.cpu.dcache.demand_avg_mshr_miss_latency::cpu.data 80455.934029                       # average overall mshr miss latency
system.cpu.dcache.demand_avg_mshr_miss_latency::total 80455.934029                       # average overall mshr miss latency
system.cpu.dcache.overall_avg_mshr_miss_latency::cpu.data 80455.934029                       # average overall mshr miss latency
system.cpu.dcache.overall_avg_mshr_miss_latency::total 80455.934029                       # average overall mshr miss latency
system.cpu.dcache.ReadReq_avg_mshr_uncacheable_latency::cpu.data 223897.389933                       # average ReadReq mshr uncacheable latency
system.cpu.dcache.ReadReq_avg_mshr_uncacheable_latency::total 223897.389933                       # average ReadReq mshr uncacheable latency
system.cpu.dcache.overall_avg_mshr_uncacheable_latency::cpu.data 89824.319659                       # average overall mshr uncacheable latency
system.cpu.dcache.overall_avg_mshr_uncacheable_latency::total 89824.319659                       # average overall mshr uncacheable latency
system.cpu.icache.tags.pwrStateResidencyTicks::UNDEFINED 2638404194500                       # Cumulative time (in ticks) in various power states
system.cpu.icache.tags.replacements           1648431                       # number of replacements
system.cpu.icache.tags.tagsinuse            63.996186                       # Cycle average of tags in use
system.cpu.icache.tags.total_refs            95823090                       # Total number of references to valid blocks.
system.cpu.icache.tags.sampled_refs           1648431                       # Sample count of references to valid blocks.
system.cpu.icache.tags.avg_refs             58.129876                       # Average number of references to valid blocks.
system.cpu.icache.tags.warmup_cycle         884703500                       # Cycle when the warmup percentage was hit.
system.cpu.icache.tags.occ_blocks::cpu.inst    63.996186                       # Average occupied blocks per requestor
system.cpu.icache.tags.occ_percent::cpu.inst     0.999940                       # Average percentage of cache occupancy
system.cpu.icache.tags.occ_percent::total     0.999940                       # Average percentage of cache occupancy
system.cpu.icache.tags.occ_task_id_blocks::1024           64                       # Occupied blocks per task id
system.cpu.icache.tags.age_task_id_blocks_1024::0           47                       # Occupied blocks per task id
system.cpu.icache.tags.age_task_id_blocks_1024::1           16                       # Occupied blocks per task id
system.cpu.icache.tags.age_task_id_blocks_1024::2            1                       # Occupied blocks per task id
system.cpu.icache.tags.occ_task_id_percent::1024            1                       # Percentage of cache occupancy per task id
system.cpu.icache.tags.tag_accesses         196597394                       # Number of tag accesses
system.cpu.icache.tags.data_accesses        196597394                       # Number of data accesses
system.cpu.icache.pwrStateResidencyTicks::UNDEFINED 2638404194500                       # Cumulative time (in ticks) in various power states
system.cpu.icache.ReadReq_hits::cpu.inst     95825710                       # number of ReadReq hits
system.cpu.icache.ReadReq_hits::total        95825710                       # number of ReadReq hits
system.cpu.icache.demand_hits::cpu.inst      95825710                       # number of demand (read+write) hits
system.cpu.icache.demand_hits::total         95825710                       # number of demand (read+write) hits
system.cpu.icache.overall_hits::cpu.inst     95825710                       # number of overall hits
system.cpu.icache.overall_hits::total        95825710                       # number of overall hits
system.cpu.icache.ReadReq_misses::cpu.inst      1648658                       # number of ReadReq misses
system.cpu.icache.ReadReq_misses::total       1648658                       # number of ReadReq misses
system.cpu.icache.demand_misses::cpu.inst      1648658                       # number of demand (read+write) misses
system.cpu.icache.demand_misses::total        1648658                       # number of demand (read+write) misses
system.cpu.icache.overall_misses::cpu.inst      1648658                       # number of overall misses
system.cpu.icache.overall_misses::total       1648658                       # number of overall misses
system.cpu.icache.ReadReq_miss_latency::cpu.inst  88869450000                       # number of ReadReq miss cycles
system.cpu.icache.ReadReq_miss_latency::total  88869450000                       # number of ReadReq miss cycles
system.cpu.icache.demand_miss_latency::cpu.inst  88869450000                       # number of demand (read+write) miss cycles
system.cpu.icache.demand_miss_latency::total  88869450000                       # number of demand (read+write) miss cycles
system.cpu.icache.overall_miss_latency::cpu.inst  88869450000                       # number of overall miss cycles
system.cpu.icache.overall_miss_latency::total  88869450000                       # number of overall miss cycles
system.cpu.icache.ReadReq_accesses::cpu.inst     97474368                       # number of ReadReq accesses(hits+misses)
system.cpu.icache.ReadReq_accesses::total     97474368                       # number of ReadReq accesses(hits+misses)
system.cpu.icache.demand_accesses::cpu.inst     97474368                       # number of demand (read+write) accesses
system.cpu.icache.demand_accesses::total     97474368                       # number of demand (read+write) accesses
system.cpu.icache.overall_accesses::cpu.inst     97474368                       # number of overall (read+write) accesses
system.cpu.icache.overall_accesses::total     97474368                       # number of overall (read+write) accesses
system.cpu.icache.ReadReq_miss_rate::cpu.inst     0.016914                       # miss rate for ReadReq accesses
system.cpu.icache.ReadReq_miss_rate::total     0.016914                       # miss rate for ReadReq accesses
system.cpu.icache.demand_miss_rate::cpu.inst     0.016914                       # miss rate for demand accesses
system.cpu.icache.demand_miss_rate::total     0.016914                       # miss rate for demand accesses
system.cpu.icache.overall_miss_rate::cpu.inst     0.016914                       # miss rate for overall accesses
system.cpu.icache.overall_miss_rate::total     0.016914                       # miss rate for overall accesses
system.cpu.icache.ReadReq_avg_miss_latency::cpu.inst 53904.114741                       # average ReadReq miss latency
system.cpu.icache.ReadReq_avg_miss_latency::total 53904.114741                       # average ReadReq miss latency
system.cpu.icache.demand_avg_miss_latency::cpu.inst 53904.114741                       # average overall miss latency
system.cpu.icache.demand_avg_miss_latency::total 53904.114741                       # average overall miss latency
system.cpu.icache.overall_avg_miss_latency::cpu.inst 53904.114741                       # average overall miss latency
system.cpu.icache.overall_avg_miss_latency::total 53904.114741                       # average overall miss latency
system.cpu.icache.blocked_cycles::no_mshrs            0                       # number of cycles access was blocked
system.cpu.icache.blocked_cycles::no_targets            0                       # number of cycles access was blocked
system.cpu.icache.blocked::no_mshrs                 0                       # number of cycles access was blocked
system.cpu.icache.blocked::no_targets               0                       # number of cycles access was blocked
system.cpu.icache.avg_blocked_cycles::no_mshrs          nan                       # average number of cycles each access was blocked
system.cpu.icache.avg_blocked_cycles::no_targets          nan                       # average number of cycles each access was blocked
system.cpu.icache.writebacks::writebacks      1648431                       # number of writebacks
system.cpu.icache.writebacks::total           1648431                       # number of writebacks
system.cpu.icache.ReadReq_mshr_misses::cpu.inst      1648658                       # number of ReadReq MSHR misses
system.cpu.icache.ReadReq_mshr_misses::total      1648658                       # number of ReadReq MSHR misses
system.cpu.icache.demand_mshr_misses::cpu.inst      1648658                       # number of demand (read+write) MSHR misses
system.cpu.icache.demand_mshr_misses::total      1648658                       # number of demand (read+write) MSHR misses
system.cpu.icache.overall_mshr_misses::cpu.inst      1648658                       # number of overall MSHR misses
system.cpu.icache.overall_mshr_misses::total      1648658                       # number of overall MSHR misses
system.cpu.icache.ReadReq_mshr_miss_latency::cpu.inst  87220792000                       # number of ReadReq MSHR miss cycles
system.cpu.icache.ReadReq_mshr_miss_latency::total  87220792000                       # number of ReadReq MSHR miss cycles
system.cpu.icache.demand_mshr_miss_latency::cpu.inst  87220792000                       # number of demand (read+write) MSHR miss cycles
system.cpu.icache.demand_mshr_miss_latency::total  87220792000                       # number of demand (read+write) MSHR miss cycles
system.cpu.icache.overall_mshr_miss_latency::cpu.inst  87220792000                       # number of overall MSHR miss cycles
system.cpu.icache.overall_mshr_miss_latency::total  87220792000                       # number of overall MSHR miss cycles
system.cpu.icache.ReadReq_mshr_miss_rate::cpu.inst     0.016914                       # mshr miss rate for ReadReq accesses
system.cpu.icache.ReadReq_mshr_miss_rate::total     0.016914                       # mshr miss rate for ReadReq accesses
system.cpu.icache.demand_mshr_miss_rate::cpu.inst     0.016914                       # mshr miss rate for demand accesses
system.cpu.icache.demand_mshr_miss_rate::total     0.016914                       # mshr miss rate for demand accesses
system.cpu.icache.overall_mshr_miss_rate::cpu.inst     0.016914                       # mshr miss rate for overall accesses
[...]
system.l2.ReadReq_avg_mshr_uncacheable_latency::total 211534.426230                       # average ReadReq mshr uncacheable latency
system.l2.overall_avg_mshr_uncacheable_latency::cpu.data 120145.251397                       # average overall mshr uncacheable latency
system.l2.overall_avg_mshr_uncacheable_latency::total 120145.251397                       # average overall mshr uncacheable latency
system.membus.snoop_filter.tot_requests         93156                       # Total number of requests made to the snoop filter.
system.membus.snoop_filter.hit_single_requests        47388                       # Number of requests hitting in the snoop filter with a single holder of the requested data.
system.membus.snoop_filter.hit_multi_requests           27                       # Number of requests hitting in the snoop filter with multiple (>1) holders of the requested data.
system.membus.snoop_filter.tot_snoops               0                       # Total number of snoops made to the snoop filter.
system.membus.snoop_filter.hit_single_snoops            0                       # Number of snoops hitting in the snoop filter with a single holder of the requested data.
system.membus.snoop_filter.hit_multi_snoops            0                       # Number of snoops hitting in the snoop filter with multiple (>1) holders of the requested data.
system.membus.pwrStateResidencyTicks::UNDEFINED   6968832000                       # Cumulative time (in ticks) in various power states
system.membus.trans_dist::ReadReq                 610                       # Transaction distribution
system.membus.trans_dist::ReadResp              33246                       # Transaction distribution
system.membus.trans_dist::WriteReq                464                       # Transaction distribution
system.membus.trans_dist::WriteResp               464                       # Transaction distribution
system.membus.trans_dist::WritebackDirty        16221                       # Transaction distribution
system.membus.trans_dist::CleanEvict            29544                       # Transaction distribution
system.membus.trans_dist::ReadExReq              7469                       # Transaction distribution
system.membus.trans_dist::ReadExResp             7469                       # Transaction distribution
system.membus.trans_dist::ReadSharedReq         32636                       # Transaction distribution
system.membus.trans_dist::InvalidateReq          5664                       # Transaction distribution
system.membus.pkt_count_system.iocache.mem_side::system.mem_ctrls.port        11382                       # Packet count per connected master and slave (bytes)
system.membus.pkt_count_system.iocache.mem_side::total        11382                       # Packet count per connected master and slave (bytes)
system.membus.pkt_count_system.l2.mem_side::system.bridge.slave         2148                       # Packet count per connected master and slave (bytes)
system.membus.pkt_count_system.l2.mem_side::system.mem_ctrls.port       120230                       # Packet count per connected master and slave (bytes)
system.membus.pkt_count_system.l2.mem_side::total       122378                       # Packet count per connected master and slave (bytes)
system.membus.pkt_count::total                 133760                       # Packet count per connected master and slave (bytes)
system.membus.pkt_size_system.iocache.mem_side::system.mem_ctrls.port       724992                       # Cumulative packet size per connected master and slave (bytes)
system.membus.pkt_size_system.iocache.mem_side::total       724992                       # Cumulative packet size per connected master and slave (bytes)
system.membus.pkt_size_system.l2.mem_side::system.bridge.slave         1735                       # Cumulative packet size per connected master and slave (bytes)
system.membus.pkt_size_system.l2.mem_side::system.mem_ctrls.port      6481280                       # Cumulative packet size per connected master and slave (bytes)
system.membus.pkt_size_system.l2.mem_side::total      6483015                       # Cumulative packet size per connected master and slave (bytes)
system.membus.pkt_size::total                 7208007                       # Cumulative packet size per connected master and slave (bytes)
system.membus.snoops                               27                       # Total snoops (count)
system.membus.snoopTraffic                       3456                       # Total snoop traffic (bytes)
system.membus.snoop_fanout::samples             46843                       # Request fanout histogram
system.membus.snoop_fanout::mean             0.000576                       # Request fanout histogram
system.membus.snoop_fanout::stdev            0.024002                       # Request fanout histogram
system.membus.snoop_fanout::underflows              0      0.00%      0.00% # Request fanout histogram
system.membus.snoop_fanout::0                   46816     99.94%     99.94% # Request fanout histogram
system.membus.snoop_fanout::1                      27      0.06%    100.00% # Request fanout histogram
system.membus.snoop_fanout::2                       0      0.00%    100.00% # Request fanout histogram
system.membus.snoop_fanout::overflows               0      0.00%    100.00% # Request fanout histogram
system.membus.snoop_fanout::min_value               0                       # Request fanout histogram
system.membus.snoop_fanout::max_value               1                       # Request fanout histogram
system.membus.snoop_fanout::total               46843                       # Request fanout histogram
system.membus.reqLayer0.occupancy             1784000                       # Layer occupancy (ticks)
system.membus.reqLayer0.utilization               0.0                       # Layer utilization (%)
system.membus.reqLayer1.occupancy           224879931                       # Layer occupancy (ticks)
system.membus.reqLayer1.utilization               3.2                       # Layer utilization (%)
system.membus.respLayer1.occupancy             256515                       # Layer occupancy (ticks)
system.membus.respLayer1.utilization              0.0                       # Layer utilization (%)
system.membus.respLayer2.occupancy          378593250                       # Layer occupancy (ticks)
system.membus.respLayer2.utilization              5.4                       # Layer utilization (%)
system.membus.badaddr_responder.pwrStateResidencyTicks::UNDEFINED   6968832000                       # Cumulative time (in ticks) in various power states
system.tol2bus.snoop_filter.tot_requests       143710                       # Total number of requests made to the snoop filter.
system.tol2bus.snoop_filter.hit_single_requests        71860                       # Number of requests hitting in the snoop filter with a single holder of the requested data.
system.tol2bus.snoop_filter.hit_multi_requests          292                       # Number of requests hitting in the snoop filter with multiple (>1) holders of the requested data.
system.tol2bus.snoop_filter.tot_snoops           4002                       # Total number of snoops made to the snoop filter.
system.tol2bus.snoop_filter.hit_single_snoops         3990                       # Number of snoops hitting in the snoop filter with a single holder of the requested data.
system.tol2bus.snoop_filter.hit_multi_snoops           12                       # Number of snoops hitting in the snoop filter with multiple (>1) holders of the requested data.
system.tol2bus.pwrStateResidencyTicks::UNDEFINED   6968832000                       # Cumulative time (in ticks) in various power states
system.tol2bus.trans_dist::ReadReq                610                       # Transaction distribution
system.tol2bus.trans_dist::ReadResp             64151                       # Transaction distribution
system.tol2bus.trans_dist::WriteReq               464                       # Transaction distribution
system.tol2bus.trans_dist::WriteResp              464                       # Transaction distribution
system.tol2bus.trans_dist::WritebackDirty        24985                       # Transaction distribution
system.tol2bus.trans_dist::WritebackClean        41095                       # Transaction distribution
system.tol2bus.trans_dist::CleanEvict           48243                       # Transaction distribution
system.tol2bus.trans_dist::UpgradeReq               1                       # Transaction distribution
system.tol2bus.trans_dist::UpgradeResp              1                       # Transaction distribution
system.tol2bus.trans_dist::ReadExReq             8342                       # Transaction distribution
system.tol2bus.trans_dist::ReadExResp            8342                       # Transaction distribution
system.tol2bus.trans_dist::ReadCleanReq         41098                       # Transaction distribution
system.tol2bus.trans_dist::ReadSharedReq        22443                       # Transaction distribution
system.tol2bus.pkt_count_system.cpu.icache.mem_side::system.l2.cpu_side       123291                       # Packet count per connected master and slave (bytes)
system.tol2bus.pkt_count_system.cpu.dcache.mem_side::system.l2.cpu_side        94451                       # Packet count per connected master and slave (bytes)
system.tol2bus.pkt_count::total                217742                       # Packet count per connected master and slave (bytes)
system.tol2bus.pkt_size_system.cpu.icache.mem_side::system.l2.cpu_side     10520704                       # Cumulative packet size per connected master and slave (bytes)
system.tol2bus.pkt_size_system.cpu.dcache.mem_side::system.l2.cpu_side      5788999                       # Cumulative packet size per connected master and slave (bytes)
system.tol2bus.pkt_size::total               16309703                       # Cumulative packet size per connected master and slave (bytes)
system.tol2bus.snoops                           42524                       # Total snoops (count)
system.tol2bus.snoopTraffic                   1354752                       # Total snoop traffic (bytes)
system.tol2bus.snoop_fanout::samples           115428                       # Request fanout histogram
system.tol2bus.snoop_fanout::mean            0.037313                       # Request fanout histogram
system.tol2bus.snoop_fanout::stdev           0.190077                       # Request fanout histogram
system.tol2bus.snoop_fanout::underflows             0      0.00%      0.00% # Request fanout histogram
system.tol2bus.snoop_fanout::0                 111133     96.28%     96.28% # Request fanout histogram
system.tol2bus.snoop_fanout::1                   4283      3.71%     99.99% # Request fanout histogram
system.tol2bus.snoop_fanout::2                     12      0.01%    100.00% # Request fanout histogram
system.tol2bus.snoop_fanout::overflows              0      0.00%    100.00% # Request fanout histogram
system.tol2bus.snoop_fanout::min_value              0                       # Request fanout histogram
system.tol2bus.snoop_fanout::max_value              2                       # Request fanout histogram
system.tol2bus.snoop_fanout::total             115428                       # Request fanout histogram
system.tol2bus.reqLayer0.occupancy          183670000                       # Layer occupancy (ticks)
system.tol2bus.reqLayer0.utilization              2.6                       # Layer utilization (%)
system.tol2bus.snoopLayer0.occupancy            74985                       # Layer occupancy (ticks)
system.tol2bus.snoopLayer0.utilization            0.0                       # Layer utilization (%)
system.tol2bus.respLayer0.occupancy         102745000                       # Layer occupancy (ticks)
system.tol2bus.respLayer0.utilization             1.5                       # Layer utilization (%)
system.tol2bus.respLayer1.occupancy          77737500                       # Layer occupancy (ticks)
system.tol2bus.respLayer1.utilization             1.1                       # Layer utilization (%)
system.tsunami.backdoor.pwrStateResidencyTicks::UNDEFINED   6968832000                       # Cumulative time (in ticks) in various power states
system.tsunami.cchip.pwrStateResidencyTicks::UNDEFINED   6968832000                       # Cumulative time (in ticks) in various power states
system.tsunami.pchip.pwrStateResidencyTicks::UNDEFINED   6968832000                       # Cumulative time (in ticks) in various power states
system.tsunami.ethernet.pwrStateResidencyTicks::UNDEFINED   6968832000                       # Cumulative time (in ticks) in various power states
system.tsunami.ethernet.descDMAReads                0                       # Number of descriptors the device read w/ DMA
system.tsunami.ethernet.descDMAWrites               0                       # Number of descriptors the device wrote w/ DMA
system.tsunami.ethernet.descDmaReadBytes            0                       # number of descriptor bytes read w/ DMA
system.tsunami.ethernet.descDmaWriteBytes            0                       # number of descriptor bytes write w/ DMA
system.tsunami.ethernet.postedSwi                   0                       # number of software interrupts posted to CPU
system.tsunami.ethernet.coalescedSwi              nan                       # average number of Swi's coalesced into each post
system.tsunami.ethernet.totalSwi                    0                       # total number of Swi written to ISR
system.tsunami.ethernet.postedRxIdle                0                       # number of rxIdle interrupts posted to CPU
system.tsunami.ethernet.coalescedRxIdle           nan                       # average number of RxIdle's coalesced into each post
system.tsunami.ethernet.totalRxIdle                 0                       # total number of RxIdle written to ISR
system.tsunami.ethernet.postedRxOk                  0                       # number of RxOk interrupts posted to CPU
system.tsunami.ethernet.coalescedRxOk             nan                       # average number of RxOk's coalesced into each post
system.tsunami.ethernet.totalRxOk                   0                       # total number of RxOk written to ISR
system.tsunami.ethernet.postedRxDesc                0                       # number of RxDesc interrupts posted to CPU
system.tsunami.ethernet.coalescedRxDesc           nan                       # average number of RxDesc's coalesced into each post
system.tsunami.ethernet.totalRxDesc                 0                       # total number of RxDesc written to ISR
system.tsunami.ethernet.postedTxOk                  0                       # number of TxOk interrupts posted to CPU
system.tsunami.ethernet.coalescedTxOk             nan                       # average number of TxOk's coalesced into each post
system.tsunami.ethernet.totalTxOk                   0                       # total number of TxOk written to ISR
system.tsunami.ethernet.postedTxIdle                0                       # number of TxIdle interrupts posted to CPU
system.tsunami.ethernet.coalescedTxIdle           nan                       # average number of TxIdle's coalesced into each post
system.tsunami.ethernet.totalTxIdle                 0                       # total number of TxIdle written to ISR
system.tsunami.ethernet.postedTxDesc                0                       # number of TxDesc interrupts posted to CPU
system.tsunami.ethernet.coalescedTxDesc           nan                       # average number of TxDesc's coalesced into each post
system.tsunami.ethernet.totalTxDesc                 0                       # total number of TxDesc written to ISR
system.tsunami.ethernet.postedRxOrn                 0                       # number of RxOrn posted to CPU
system.tsunami.ethernet.coalescedRxOrn            nan                       # average number of RxOrn's coalesced into each post
system.tsunami.ethernet.totalRxOrn                  0                       # total number of RxOrn written to ISR
system.tsunami.ethernet.coalescedTotal            nan                       # average number of interrupts coalesced into each post
system.tsunami.ethernet.postedInterrupts            0                       # number of posts to CPU
system.tsunami.ethernet.droppedPackets              0                       # number of packets dropped
system.tsunami.fake_OROM.pwrStateResidencyTicks::UNDEFINED   6968832000                       # Cumulative time (in ticks) in various power states
system.tsunami.fake_ata0.pwrStateResidencyTicks::UNDEFINED   6968832000                       # Cumulative time (in ticks) in various power states
system.tsunami.fake_ata1.pwrStateResidencyTicks::UNDEFINED   6968832000                       # Cumulative time (in ticks) in various power states
system.tsunami.fake_pnp_addr.pwrStateResidencyTicks::UNDEFINED   6968832000                       # Cumulative time (in ticks) in various power states
system.tsunami.fake_pnp_read0.pwrStateResidencyTicks::UNDEFINED   6968832000                       # Cumulative time (in ticks) in various power states
system.tsunami.fake_pnp_read1.pwrStateResidencyTicks::UNDEFINED   6968832000                       # Cumulative time (in ticks) in various power states
system.tsunami.fake_pnp_read2.pwrStateResidencyTicks::UNDEFINED   6968832000                       # Cumulative time (in ticks) in various power states
system.tsunami.fake_pnp_read3.pwrStateResidencyTicks::UNDEFINED   6968832000                       # Cumulative time (in ticks) in various power states
system.tsunami.fake_pnp_read4.pwrStateResidencyTicks::UNDEFINED   6968832000                       # Cumulative time (in ticks) in various power states
system.tsunami.fake_pnp_read5.pwrStateResidencyTicks::UNDEFINED   6968832000                       # Cumulative time (in ticks) in various power states
system.tsunami.fake_pnp_read6.pwrStateResidencyTicks::UNDEFINED   6968832000                       # Cumulative time (in ticks) in various power states
system.tsunami.fake_pnp_read7.pwrStateResidencyTicks::UNDEFINED   6968832000                       # Cumulative time (in ticks) in various power states
system.tsunami.fake_pnp_write.pwrStateResidencyTicks::UNDEFINED   6968832000                       # Cumulative time (in ticks) in various power states
system.tsunami.fake_ppc.pwrStateResidencyTicks::UNDEFINED   6968832000                       # Cumulative time (in ticks) in various power states
system.tsunami.fake_sm_chip.pwrStateResidencyTicks::UNDEFINED   6968832000                       # Cumulative time (in ticks) in various power states
system.tsunami.fake_uart1.pwrStateResidencyTicks::UNDEFINED   6968832000                       # Cumulative time (in ticks) in various power states
system.tsunami.fake_uart2.pwrStateResidencyTicks::UNDEFINED   6968832000                       # Cumulative time (in ticks) in various power states
system.tsunami.fake_uart3.pwrStateResidencyTicks::UNDEFINED   6968832000                       # Cumulative time (in ticks) in various power states
system.tsunami.fake_uart4.pwrStateResidencyTicks::UNDEFINED   6968832000                       # Cumulative time (in ticks) in various power states
system.tsunami.fb.pwrStateResidencyTicks::UNDEFINED   6968832000                       # Cumulative time (in ticks) in various power states
system.tsunami.ide.pwrStateResidencyTicks::UNDEFINED   6968832000                       # Cumulative time (in ticks) in various power states
system.tsunami.io.pwrStateResidencyTicks::UNDEFINED   6968832000                       # Cumulative time (in ticks) in various power states
system.tsunami.uart.pwrStateResidencyTicks::UNDEFINED   6968832000                       # Cumulative time (in ticks) in various power states

---------- End Simulation Statistics   ----------
