---------- Begin Simulation Statistics ----------
sim_seconds                                  0.005734                       # Number of seconds simulated
sim_ticks                                  5733729000                       # Number of ticks simulated
system.cpu.dcache.tags.replacements             16987                       # number of replacements
system.cpu.dcache.tags.total_refs              606948                       # Total number of references to valid blocks.
system.cpu.dcache.tags.avg_refs             34.684725                       # Average number of references to valid blocks.
system.cpu.dcache.tags.occ_percent::total            1                       # Average percentage of cache occupancy
system.cpu.dcache.tags.data_accesses          4732035                       # Number of data accesses
system.cpu.dcache.ReadReq_hits::total          315430                       # number of ReadReq hits
system.cpu.dcache.WriteReq_hits::total         244975                       # number of WriteReq hits
system.cpu.dcache.overall_hits::total          560405                       # number of overall hits
system.cpu.dcache.ReadReq_misses::total          9626                       # number of ReadReq misses
system.cpu.dcache.overall_misses::total         16659                       # number of overall misses
system.cpu.dcache.ReadReq_miss_rate::total     0.029613                       # miss rate for ReadReq accesses
system.cpu.dcache.WriteReq_miss_rate::total     0.027908                       # miss rate for WriteReq accesses
system.cpu.dcache.overall_miss_rate::total     0.028869                       # miss rate for overall accesses
system.cpu.dcache.writebacks::total              9445                       # number of writebacks
system.l2.tags.replacements                     53008                       # number of replacements
system.l2.tags.total_refs                       18395                       # Total number of references to valid blocks.
system.l2.tags.avg_refs                      0.343703                       # Average number of references to valid blocks.
system.l2.tags.occ_percent::total                   1                       # Average percentage of cache occupancy
system.l2.tags.data_accesses                   208524                       # Number of data accesses
system.l2.overall_hits::total                    8304                       # number of overall hits
system.l2.overall_misses::total                 30661                       # number of overall misses
system.l2.overall_miss_rate::total           0.786886                       # miss rate for overall accesses
system.l2.writebacks::total                      8839                       # number of writebacks
---------- End Simulation Statistics   ----------
