
---------- Begin Simulation Statistics ----------
sim_seconds                                  2.535470                       # Number of seconds simulated
sim_ticks                                2535469934500                       # Number of ticks simulated
final_tick                               2535469934500                       # Number of ticks from beginning of simulation (restored from checkpoints and never reset)
sim_freq                                 1000000000000                       # Frequency of simulated ticks
host_inst_rate                                 225823                       # Simulator instruction rate (inst/s)
host_op_rate                                   225823                       # Simulator op (including micro ops) rate (op/s)
host_tick_rate                             5084344955                       # Simulator tick rate (ticks/s)
host_mem_usage                                 756840                       # Number of bytes of host memory used
host_seconds                                   498.68                       # Real time elapsed on the host
sim_insts                                   112613860                       # Number of instructions simulated
sim_ops                                     112613860                       # Number of ops (including micro ops) simulated
system.voltage_domain.voltage                       1                       # Voltage in Volts
system.clk_domain.clock                          1000                       # Clock period in ticks
system.mem_ctrls.pwrStateResidencyTicks::UNDEFINED 2535469934500                       # Cumulative time (in ticks) in various power states
system.mem_ctrls.bytes_read::cpu0.inst         518960                       # Number of bytes read from this memory
system.mem_ctrls.bytes_read::cpu0.data       16627824                       # Number of bytes read from this memory
system.mem_ctrls.bytes_read::cpu1.inst         108400                       # Number of bytes read from this memory
system.mem_ctrls.bytes_read::cpu1.data         606368                       # Number of bytes read from this memory
system.mem_ctrls.bytes_read::cpu2.inst         512320                       # Number of bytes read from this memory
system.mem_ctrls.bytes_read::cpu2.data        2894112                       # Number of bytes read from this memory
system.mem_ctrls.bytes_read::cpu3.inst          66720                       # Number of bytes read from this memory
system.mem_ctrls.bytes_read::cpu3.data         457696                       # Number of bytes read from this memory
system.mem_ctrls.bytes_read::tsunami.ide         4048                       # Number of bytes read from this memory
system.mem_ctrls.bytes_read::total           21796448                       # Number of bytes read from this memory
system.mem_ctrls.bytes_inst_read::cpu0.inst       518960                       # Number of instructions bytes read from this memory
system.mem_ctrls.bytes_inst_read::cpu1.inst       108400                       # Number of instructions bytes read from this memory
system.mem_ctrls.bytes_inst_read::cpu2.inst       512320                       # Number of instructions bytes read from this memory
system.mem_ctrls.bytes_inst_read::cpu3.inst        66720                       # Number of instructions bytes read from this memory
system.mem_ctrls.bytes_inst_read::total       1206400                       # Number of instructions bytes read from this memory
system.mem_ctrls.bytes_written::writebacks     18340256                       # Number of bytes written to this memory
system.mem_ctrls.bytes_written::total        18340256                       # Number of bytes written to this memory
system.mem_ctrls.num_reads::cpu0.inst           32435                       # Number of read requests responded to by this memory
system.mem_ctrls.num_reads::cpu0.data         1039239                       # Number of read requests responded to by this memory
system.mem_ctrls.num_reads::cpu1.inst            6775                       # Number of read requests responded to by this memory
system.mem_ctrls.num_reads::cpu1.data           37898                       # Number of read requests responded to by this memory
system.mem_ctrls.num_reads::cpu2.inst           32020                       # Number of read requests responded to by this memory
system.mem_ctrls.num_reads::cpu2.data          180882                       # Number of read requests responded to by this memory
system.mem_ctrls.num_reads::cpu3.inst            4170                       # Number of read requests responded to by this memory
system.mem_ctrls.num_reads::cpu3.data           28606                       # Number of read requests responded to by this memory
system.mem_ctrls.num_reads::tsunami.ide           253                       # Number of read requests responded to by this memory
system.mem_ctrls.num_reads::total             1362278                       # Number of read requests responded to by this memory
system.mem_ctrls.num_writes::writebacks       1146266                       # Number of write requests responded to by this memory
system.mem_ctrls.num_writes::total            1146266                       # Number of write requests responded to by this memory
system.mem_ctrls.bw_read::cpu0.inst            204680                       # Total read bandwidth from this memory (bytes/s)
system.mem_ctrls.bw_read::cpu0.data           6558084                       # Total read bandwidth from this memory (bytes/s)
system.mem_ctrls.bw_read::cpu1.inst             42753                       # Total read bandwidth from this memory (bytes/s)
system.mem_ctrls.bw_read::cpu1.data            239154                       # Total read bandwidth from this memory (bytes/s)
system.mem_ctrls.bw_read::cpu2.inst            202061                       # Total read bandwidth from this memory (bytes/s)
system.mem_ctrls.bw_read::cpu2.data           1141450                       # Total read bandwidth from this memory (bytes/s)
system.mem_ctrls.bw_read::cpu3.inst             26315                       # Total read bandwidth from this memory (bytes/s)
system.mem_ctrls.bw_read::cpu3.data            180517                       # Total read bandwidth from this memory (bytes/s)
system.mem_ctrls.bw_read::tsunami.ide            1597                       # Total read bandwidth from this memory (bytes/s)
system.mem_ctrls.bw_read::total               8596611                       # Total read bandwidth from this memory (bytes/s)
system.mem_ctrls.bw_inst_read::cpu0.inst       204680                       # Instruction read bandwidth from this memory (bytes/s)
system.mem_ctrls.bw_inst_read::cpu1.inst        42753                       # Instruction read bandwidth from this memory (bytes/s)
system.mem_ctrls.bw_inst_read::cpu2.inst       202061                       # Instruction read bandwidth from this memory (bytes/s)
system.mem_ctrls.bw_inst_read::cpu3.inst        26315                       # Instruction read bandwidth from this memory (bytes/s)
system.mem_ctrls.bw_inst_read::total           475809                       # Instruction read bandwidth from this memory (bytes/s)
system.mem_ctrls.bw_write::writebacks         7233474                       # Write bandwidth from this memory (bytes/s)
system.mem_ctrls.bw_write::total              7233474                       # Write bandwidth from this memory (bytes/s)
system.mem_ctrls.bw_total::writebacks         7233474                       # Total bandwidth to/from this memory (bytes/s)
system.mem_ctrls.bw_total::cpu0.inst           204680                       # Total bandwidth to/from this memory (bytes/s)
system.mem_ctrls.bw_total::cpu0.data          6558084                       # Total bandwidth to/from this memory (bytes/s)
system.mem_ctrls.bw_total::cpu1.inst            42753                       # Total bandwidth to/from this memory (bytes/s)
system.mem_ctrls.bw_total::cpu1.data           239154                       # Total bandwidth to/from this memory (bytes/s)
system.mem_ctrls.bw_total::cpu2.inst           202061                       # Total bandwidth to/from this memory (bytes/s)
system.mem_ctrls.bw_total::cpu2.data          1141450                       # Total bandwidth to/from this memory (bytes/s)
system.mem_ctrls.bw_total::cpu3.inst            26315                       # Total bandwidth to/from this memory (bytes/s)
system.mem_ctrls.bw_total::cpu3.data           180517                       # Total bandwidth to/from this memory (bytes/s)
system.mem_ctrls.bw_total::tsunami.ide           1597                       # Total bandwidth to/from this memory (bytes/s)
system.mem_ctrls.bw_total::total             15830085                       # Total bandwidth to/from this memory (bytes/s)
system.mem_ctrls.readReqs                     1362278                       # Number of read requests accepted
system.mem_ctrls.writeReqs                    1146266                       # Number of write requests accepted
system.mem_ctrls.readBursts                   1362278                       # Number of DRAM read bursts, including those serviced by the write queue
system.mem_ctrls.writeBursts                  1146266                       # Number of DRAM write bursts, including those merged in the write queue
system.mem_ctrls.bytesReadDRAM               87172544                       # Total number of bytes read from DRAM
system.mem_ctrls.bytesReadWrQ                   13248                       # Total number of bytes read from write queue
system.mem_ctrls.bytesWritten                51479680                       # Total number of bytes written to DRAM
system.mem_ctrls.bytesReadSys                21796448                       # Total read bytes from the system interface side
system.mem_ctrls.bytesWrittenSys             18340256                       # Total written bytes from the system interface side
system.mem_ctrls.servicedByWrQ                    207                       # Number of DRAM read bursts serviced by the write queue
system.mem_ctrls.mergedWrBursts                341869                       # Number of DRAM write bursts merged with an existing one
system.mem_ctrls.neitherReadNorWriteReqs            0                       # Number of requests that are neither read nor write
system.mem_ctrls.perBankRdBursts::0             83254                       # Per bank write bursts
system.mem_ctrls.perBankRdBursts::1             84878                       # Per bank write bursts
system.mem_ctrls.perBankRdBursts::2             86216                       # Per bank write bursts
system.mem_ctrls.perBankRdBursts::3             82900                       # Per bank write bursts
system.mem_ctrls.perBankRdBursts::4             82885                       # Per bank write bursts
system.mem_ctrls.perBankRdBursts::5             87048                       # Per bank write bursts
system.mem_ctrls.perBankRdBursts::6             90646                       # Per bank write bursts
system.mem_ctrls.perBankRdBursts::7             87024                       # Per bank write bursts
system.mem_ctrls.perBankRdBursts::8             83810                       # Per bank write bursts
system.mem_ctrls.perBankRdBursts::9             84111                       # Per bank write bursts
system.mem_ctrls.perBankRdBursts::10            87181                       # Per bank write bursts
system.mem_ctrls.perBankRdBursts::11            84883                       # Per bank write bursts
system.mem_ctrls.perBankRdBursts::12            86203                       # Per bank write bursts
system.mem_ctrls.perBankRdBursts::13            84028                       # Per bank write bursts
system.mem_ctrls.perBankRdBursts::14            82512                       # Per bank write bursts
system.mem_ctrls.perBankRdBursts::15            84492                       # Per bank write bursts
system.mem_ctrls.perBankWrBursts::0             51703                       # Per bank write bursts
system.mem_ctrls.perBankWrBursts::1             50974                       # Per bank write bursts
system.mem_ctrls.perBankWrBursts::2             52997                       # Per bank write bursts
system.mem_ctrls.perBankWrBursts::3             49868                       # Per bank write bursts
system.mem_ctrls.perBankWrBursts::4             50686                       # Per bank write bursts
system.mem_ctrls.perBankWrBursts::5             51844                       # Per bank write bursts
system.mem_ctrls.perBankWrBursts::6             52705                       # Per bank write bursts
system.mem_ctrls.perBankWrBursts::7             52784                       # Per bank write bursts
system.mem_ctrls.perBankWrBursts::8             47197                       # Per bank write bursts
system.mem_ctrls.perBankWrBursts::9             48396                       # Per bank write bursts
system.mem_ctrls.perBankWrBursts::10            47715                       # Per bank write bursts
system.mem_ctrls.perBankWrBursts::11            48493                       # Per bank write bursts
system.mem_ctrls.perBankWrBursts::12            48788                       # Per bank write bursts
system.mem_ctrls.perBankWrBursts::13            49456                       # Per bank write bursts
system.mem_ctrls.perBankWrBursts::14            49209                       # Per bank write bursts
system.mem_ctrls.perBankWrBursts::15            51555                       # Per bank write bursts
system.mem_ctrls.numRdRetry                         0                       # Number of times read queue was full causing retry
system.mem_ctrls.numWrRetry                         0                       # Number of times write queue was full causing retry
system.mem_ctrls.totGap                  2535469737500                       # Total gap between requests
system.mem_ctrls.readPktSize::0                     0                       # Read request sizes (log2)
system.mem_ctrls.readPktSize::1                     0                       # Read request sizes (log2)
system.mem_ctrls.readPktSize::2                     0                       # Read request sizes (log2)
system.mem_ctrls.readPktSize::3                     0                       # Read request sizes (log2)
system.mem_ctrls.readPktSize::4               1362278                       # Read request sizes (log2)
system.mem_ctrls.readPktSize::5                     0                       # Read request sizes (log2)
system.mem_ctrls.readPktSize::6                     0                       # Read request sizes (log2)
system.mem_ctrls.writePktSize::0                    0                       # Write request sizes (log2)
system.mem_ctrls.writePktSize::1                    0                       # Write request sizes (log2)
system.mem_ctrls.writePktSize::2                    0                       # Write request sizes (log2)
system.mem_ctrls.writePktSize::3                    0                       # Write request sizes (log2)
system.mem_ctrls.writePktSize::4              1146266                       # Write request sizes (log2)
system.mem_ctrls.writePktSize::5                    0                       # Write request sizes (log2)
system.mem_ctrls.writePktSize::6                    0                       # Write request sizes (log2)
system.mem_ctrls.rdQLenPdf::0                 1357433                       # What read queue length does an incoming req see
system.mem_ctrls.rdQLenPdf::1                    4209                       # What read queue length does an incoming req see
system.mem_ctrls.rdQLenPdf::2                     196                       # What read queue length does an incoming req see
system.mem_ctrls.rdQLenPdf::3                       9                       # What read queue length does an incoming req see
system.mem_ctrls.rdQLenPdf::4                      15                       # What read queue length does an incoming req see
system.mem_ctrls.rdQLenPdf::5                      15                       # What read queue length does an incoming req see
system.mem_ctrls.rdQLenPdf::6                      14                       # What read queue length does an incoming req see
system.mem_ctrls.rdQLenPdf::7                      15                       # What read queue length does an incoming req see
system.mem_ctrls.rdQLenPdf::8                      62                       # What read queue length does an incoming req see
system.mem_ctrls.rdQLenPdf::9                      47                       # What read queue length does an incoming req see
system.mem_ctrls.rdQLenPdf::10                     16                       # What read queue length does an incoming req see
system.mem_ctrls.rdQLenPdf::11                     11                       # What read queue length does an incoming req see
system.mem_ctrls.rdQLenPdf::12                      8                       # What read queue length does an incoming req see
system.mem_ctrls.rdQLenPdf::13                      4                       # What read queue length does an incoming req see
system.mem_ctrls.rdQLenPdf::14                      5                       # What read queue length does an incoming req see
system.mem_ctrls.rdQLenPdf::15                      3                       # What read queue length does an incoming req see
system.mem_ctrls.rdQLenPdf::16                      3                       # What read queue length does an incoming req see
system.mem_ctrls.rdQLenPdf::17                      2                       # What read queue length does an incoming req see
system.mem_ctrls.rdQLenPdf::18                      2                       # What read queue length does an incoming req see
system.mem_ctrls.rdQLenPdf::19                      2                       # What read queue length does an incoming req see
system.mem_ctrls.rdQLenPdf::20                      0                       # What read queue length does an incoming req see
system.mem_ctrls.rdQLenPdf::21                      0                       # What read queue length does an incoming req see
system.mem_ctrls.rdQLenPdf::22                      0                       # What read queue length does an incoming req see
system.mem_ctrls.rdQLenPdf::23                      0                       # What read queue length does an incoming req see
system.mem_ctrls.rdQLenPdf::24                      0                       # What read queue length does an incoming req see
system.mem_ctrls.rdQLenPdf::25                      0                       # What read queue length does an incoming req see
system.mem_ctrls.rdQLenPdf::26                      0                       # What read queue length does an incoming req see
system.mem_ctrls.rdQLenPdf::27                      0                       # What read queue length does an incoming req see
system.mem_ctrls.rdQLenPdf::28                      0                       # What read queue length does an incoming req see
system.mem_ctrls.rdQLenPdf::29                      0                       # What read queue length does an incoming req see
system.mem_ctrls.rdQLenPdf::30                      0                       # What read queue length does an incoming req see
system.mem_ctrls.rdQLenPdf::31                      0                       # What read queue length does an incoming req see
system.mem_ctrls.wrQLenPdf::0                       1                       # What write queue length does an incoming req see
system.mem_ctrls.wrQLenPdf::1                       1                       # What write queue length does an incoming req see
system.mem_ctrls.wrQLenPdf::2                       1                       # What write queue length does an incoming req see
system.mem_ctrls.wrQLenPdf::3                       1                       # What write queue length does an incoming req see
system.mem_ctrls.wrQLenPdf::4                       1                       # What write queue length does an incoming req see
system.mem_ctrls.wrQLenPdf::5                       1                       # What write queue length does an incoming req see
system.mem_ctrls.wrQLenPdf::6                       1                       # What write queue length does an incoming req see
system.mem_ctrls.wrQLenPdf::7                       1                       # What write queue length does an incoming req see
system.mem_ctrls.wrQLenPdf::8                       1                       # What write queue length does an incoming req see
system.mem_ctrls.wrQLenPdf::9                       1                       # What write queue length does an incoming req see
system.mem_ctrls.wrQLenPdf::10                      1                       # What write queue length does an incoming req see
system.mem_ctrls.wrQLenPdf::11                      1                       # What write queue length does an incoming req see
system.mem_ctrls.wrQLenPdf::12                      1                       # What write queue length does an incoming req see
system.mem_ctrls.wrQLenPdf::13                      1                       # What write queue length does an incoming req see
system.mem_ctrls.wrQLenPdf::14                      1                       # What write queue length does an incoming req see
system.mem_ctrls.wrQLenPdf::15                   8095                       # What write queue length does an incoming req see
system.mem_ctrls.wrQLenPdf::16                  10292                       # What write queue length does an incoming req see
system.mem_ctrls.wrQLenPdf::17                  49139                       # What write queue length does an incoming req see
system.mem_ctrls.wrQLenPdf::18                  49154                       # What write queue length does an incoming req see
system.mem_ctrls.wrQLenPdf::19                  49472                       # What write queue length does an incoming req see
system.mem_ctrls.wrQLenPdf::20                  49166                       # What write queue length does an incoming req see
system.mem_ctrls.wrQLenPdf::21                  48959                       # What write queue length does an incoming req see
system.mem_ctrls.wrQLenPdf::22                  48846                       # What write queue length does an incoming req see
system.mem_ctrls.wrQLenPdf::23                  48764                       # What write queue length does an incoming req see
system.mem_ctrls.wrQLenPdf::24                  48847                       # What write queue length does an incoming req see
system.mem_ctrls.wrQLenPdf::25                  49419                       # What write queue length does an incoming req see
system.mem_ctrls.wrQLenPdf::26                  49217                       # What write queue length does an incoming req see
system.mem_ctrls.wrQLenPdf::27                  48990                       # What write queue length does an incoming req see
system.mem_ctrls.wrQLenPdf::28                  48974                       # What write queue length does an incoming req see
system.mem_ctrls.wrQLenPdf::29                  48795                       # What write queue length does an incoming req see
system.mem_ctrls.wrQLenPdf::30                  48687                       # What write queue length does an incoming req see
system.mem_ctrls.wrQLenPdf::31                  48692                       # What write queue length does an incoming req see
system.mem_ctrls.wrQLenPdf::32                  48565                       # What write queue length does an incoming req see
system.mem_ctrls.wrQLenPdf::33                    202                       # What write queue length does an incoming req see
system.mem_ctrls.wrQLenPdf::34                    182                       # What write queue length does an incoming req see
system.mem_ctrls.wrQLenPdf::35                    172                       # What write queue length does an incoming req see
system.mem_ctrls.wrQLenPdf::36                    153                       # What write queue length does an incoming req see
system.mem_ctrls.wrQLenPdf::37                    134                       # What write queue length does an incoming req see
system.mem_ctrls.wrQLenPdf::38                    138                       # What write queue length does an incoming req see
system.mem_ctrls.wrQLenPdf::39                    140                       # What write queue length does an incoming req see
system.mem_ctrls.wrQLenPdf::40                    115                       # What write queue length does an incoming req see
system.mem_ctrls.wrQLenPdf::41                    102                       # What write queue length does an incoming req see
system.mem_ctrls.wrQLenPdf::42                     94                       # What write queue length does an incoming req see
system.mem_ctrls.wrQLenPdf::43                    110                       # What write queue length does an incoming req see
system.mem_ctrls.wrQLenPdf::44                    102                       # What write queue length does an incoming req see
system.mem_ctrls.wrQLenPdf::45                     83                       # What write queue length does an incoming req see
system.mem_ctrls.wrQLenPdf::46                     78                       # What write queue length does an incoming req see
system.mem_ctrls.wrQLenPdf::47                     76                       # What write queue length does an incoming req see
system.mem_ctrls.wrQLenPdf::48                     69                       # What write queue length does an incoming req see
system.mem_ctrls.wrQLenPdf::49                     63                       # What write queue length does an incoming req see
system.mem_ctrls.wrQLenPdf::50                     62                       # What write queue length does an incoming req see
system.mem_ctrls.wrQLenPdf::51                     61                       # What write queue length does an incoming req see
system.mem_ctrls.wrQLenPdf::52                     61                       # What write queue length does an incoming req see
system.mem_ctrls.wrQLenPdf::53                     49                       # What write queue length does an incoming req see
system.mem_ctrls.wrQLenPdf::54                     36                       # What write queue length does an incoming req see
system.mem_ctrls.wrQLenPdf::55                     22                       # What write queue length does an incoming req see
system.mem_ctrls.wrQLenPdf::56                      3                       # What write queue length does an incoming req see
system.mem_ctrls.wrQLenPdf::57                      2                       # What write queue length does an incoming req see
system.mem_ctrls.wrQLenPdf::58                      0                       # What write queue length does an incoming req see
system.mem_ctrls.wrQLenPdf::59                      0                       # What write queue length does an incoming req see
system.mem_ctrls.wrQLenPdf::60                      0                       # What write queue length does an incoming req see
system.mem_ctrls.wrQLenPdf::61                      0                       # What write queue length does an incoming req see
system.mem_ctrls.wrQLenPdf::62                      0                       # What write queue length does an incoming req see
system.mem_ctrls.wrQLenPdf::63                      0                       # What write queue length does an incoming req see
system.mem_ctrls.bytesPerActivate::samples       392066                       # Bytes accessed per row activation
system.mem_ctrls.bytesPerActivate::mean    353.644621                       # Bytes accessed per row activation
system.mem_ctrls.bytesPerActivate::gmean   195.110542                       # Bytes accessed per row activation
system.mem_ctrls.bytesPerActivate::stdev   373.658375                       # Bytes accessed per row activation
system.mem_ctrls.bytesPerActivate::0-127       149650     38.17%     38.17% # Bytes accessed per row activation
system.mem_ctrls.bytesPerActivate::128-255        84472     21.55%     59.71% # Bytes accessed per row activation
system.mem_ctrls.bytesPerActivate::256-383        31980      8.16%     67.87% # Bytes accessed per row activation
system.mem_ctrls.bytesPerActivate::384-511        16026      4.09%     71.96% # Bytes accessed per row activation
system.mem_ctrls.bytesPerActivate::512-639        12398      3.16%     75.12% # Bytes accessed per row activation
system.mem_ctrls.bytesPerActivate::640-767         9214      2.35%     77.47% # Bytes accessed per row activation
system.mem_ctrls.bytesPerActivate::768-895         8110      2.07%     79.54% # Bytes accessed per row activation
system.mem_ctrls.bytesPerActivate::896-1023         6162      1.57%     81.11% # Bytes accessed per row activation
system.mem_ctrls.bytesPerActivate::1024-1151        74054     18.89%    100.00% # Bytes accessed per row activation
system.mem_ctrls.bytesPerActivate::total       392066                       # Bytes accessed per row activation
system.mem_ctrls.rdPerTurnAround::samples        48413                       # Reads before turning the bus around for writes
system.mem_ctrls.rdPerTurnAround::mean      28.133704                       # Reads before turning the bus around for writes
system.mem_ctrls.rdPerTurnAround::stdev    466.846436                       # Reads before turning the bus around for writes
system.mem_ctrls.rdPerTurnAround::0-4095        48410     99.99%     99.99% # Reads before turning the bus around for writes
system.mem_ctrls.rdPerTurnAround::24576-28671            1      0.00%    100.00% # Reads before turning the bus around for writes
system.mem_ctrls.rdPerTurnAround::40960-45055            1      0.00%    100.00% # Reads before turning the bus around for writes
system.mem_ctrls.rdPerTurnAround::86016-90111            1      0.00%    100.00% # Reads before turning the bus around for writes
system.mem_ctrls.rdPerTurnAround::total         48413                       # Reads before turning the bus around for writes
system.mem_ctrls.wrPerTurnAround::samples        48413                       # Writes before turning the bus around for reads
system.mem_ctrls.wrPerTurnAround::mean      16.614752                       # Writes before turning the bus around for reads
system.mem_ctrls.wrPerTurnAround::gmean     16.527224                       # Writes before turning the bus around for reads
system.mem_ctrls.wrPerTurnAround::stdev      2.152982                       # Writes before turning the bus around for reads
system.mem_ctrls.wrPerTurnAround::16-17         40261     83.16%     83.16% # Writes before turning the bus around for reads
system.mem_ctrls.wrPerTurnAround::18-19          6397     13.21%     96.37% # Writes before turning the bus around for reads
system.mem_ctrls.wrPerTurnAround::20-21           536      1.11%     97.48% # Writes before turning the bus around for reads
system.mem_ctrls.wrPerTurnAround::22-23           399      0.82%     98.31% # Writes before turning the bus around for reads
system.mem_ctrls.wrPerTurnAround::24-25           339      0.70%     99.01% # Writes before turning the bus around for reads
system.mem_ctrls.wrPerTurnAround::26-27           264      0.55%     99.55% # Writes before turning the bus around for reads
system.mem_ctrls.wrPerTurnAround::28-29            81      0.17%     99.72% # Writes before turning the bus around for reads
system.mem_ctrls.wrPerTurnAround::30-31            19      0.04%     99.76% # Writes before turning the bus around for reads
system.mem_ctrls.wrPerTurnAround::32-33             8      0.02%     99.77% # Writes before turning the bus around for reads
system.mem_ctrls.wrPerTurnAround::34-35             5      0.01%     99.79% # Writes before turning the bus around for reads
system.mem_ctrls.wrPerTurnAround::36-37             9      0.02%     99.80% # Writes before turning the bus around for reads
system.mem_ctrls.wrPerTurnAround::38-39             7      0.01%     99.82% # Writes before turning the bus around for reads
system.mem_ctrls.wrPerTurnAround::40-41            12      0.02%     99.84% # Writes before turning the bus around for reads
system.mem_ctrls.wrPerTurnAround::42-43            14      0.03%     99.87% # Writes before turning the bus around for reads
system.mem_ctrls.wrPerTurnAround::44-45             9      0.02%     99.89% # Writes before turning the bus around for reads
system.mem_ctrls.wrPerTurnAround::46-47             3      0.01%     99.90% # Writes before turning the bus around for reads
system.mem_ctrls.wrPerTurnAround::48-49             6      0.01%     99.91% # Writes before turning the bus around for reads
system.mem_ctrls.wrPerTurnAround::50-51             6      0.01%     99.92% # Writes before turning the bus around for reads
system.mem_ctrls.wrPerTurnAround::52-53            17      0.04%     99.96% # Writes before turning the bus around for reads
system.mem_ctrls.wrPerTurnAround::54-55             9      0.02%     99.98% # Writes before turning the bus around for reads
system.mem_ctrls.wrPerTurnAround::56-57             3      0.01%     99.98% # Writes before turning the bus around for reads
system.mem_ctrls.wrPerTurnAround::60-61             4      0.01%     99.99% # Writes before turning the bus around for reads
system.mem_ctrls.wrPerTurnAround::64-65             1      0.00%     99.99% # Writes before turning the bus around for reads
system.mem_ctrls.wrPerTurnAround::66-67             1      0.00%     99.99% # Writes before turning the bus around for reads
system.mem_ctrls.wrPerTurnAround::68-69             2      0.00%    100.00% # Writes before turning the bus around for reads
system.mem_ctrls.wrPerTurnAround::84-85             1      0.00%    100.00% # Writes before turning the bus around for reads
system.mem_ctrls.wrPerTurnAround::total         48413                       # Writes before turning the bus around for reads
system.mem_ctrls.totQLat                  21319222968                       # Total ticks spent queuing
system.mem_ctrls.totMemAccLat             46858054218                       # Total ticks spent from burst creation until serviced by the DRAM
system.mem_ctrls.totBusLat                 6810355000                       # Total ticks spent in databus transfers
system.mem_ctrls.avgQLat                     15652.06                       # Average queueing delay per DRAM burst
system.mem_ctrls.avgBusLat                    5000.00                       # Average bus latency per DRAM burst
system.mem_ctrls.avgMemAccLat                34402.06                       # Average memory access latency per DRAM burst
system.mem_ctrls.avgRdBW                        34.38                       # Average DRAM read bandwidth in MiByte/s
system.mem_ctrls.avgWrBW                        20.30                       # Average achieved write bandwidth in MiByte/s
system.mem_ctrls.avgRdBWSys                      8.60                       # Average system read bandwidth in MiByte/s
system.mem_ctrls.avgWrBWSys                      7.23                       # Average system write bandwidth in MiByte/s
system.mem_ctrls.peakBW                      12800.00                       # Theoretical peak bandwidth in MiByte/s
system.mem_ctrls.busUtil                         0.43                       # Data bus utilization in percentage
system.mem_ctrls.busUtilRead                     0.27                       # Data bus utilization in percentage for reads
system.mem_ctrls.busUtilWrite                    0.16                       # Data bus utilization in percentage for writes
system.mem_ctrls.avgRdQLen                       1.02                       # Average read queue length when enqueuing
system.mem_ctrls.avgWrQLen                      25.49                       # Average write queue length when enqueuing
system.mem_ctrls.readRowHits                  1216401                       # Number of row buffer hits during reads
system.mem_ctrls.writeRowHits                  557972                       # Number of row buffer hits during writes
system.mem_ctrls.readRowHitRate                 89.31                       # Row buffer hit rate for reads
system.mem_ctrls.writeRowHitRate                69.37                       # Row buffer hit rate for writes
system.mem_ctrls.avgGap                    1010733.61                       # Average gap between requests
system.mem_ctrls.pageHitRate                    81.90                       # Row buffer hit rate, read and write combined
system.mem_ctrls_0.actEnergy               1449270060                       # Energy for activate commands per rank (pJ)
system.mem_ctrls_0.preEnergy                770297715                       # Energy for precharge commands per rank (pJ)
system.mem_ctrls_0.readEnergy              4889836140                       # Energy for read commands per rank (pJ)
system.mem_ctrls_0.writeEnergy             2158788420                       # Energy for write commands per rank (pJ)
system.mem_ctrls_0.refreshEnergy         19352555040.000004                       # Energy for refresh commands per rank (pJ)
system.mem_ctrls_0.actBackEnergy          29476046340                       # Energy for active background per rank (pJ)
system.mem_ctrls_0.preBackEnergy           1022775360                       # Energy for precharge background per rank (pJ)
system.mem_ctrls_0.actPowerDownEnergy     40693658310                       # Energy for active power-down per rank (pJ)
system.mem_ctrls_0.prePowerDownEnergy     21641171040                       # Energy for precharge power-down per rank (pJ)
system.mem_ctrls_0.selfRefreshEnergy     559872757920                       # Energy for self refresh per rank (pJ)
system.mem_ctrls_0.totalEnergy           681332803275                       # Total energy per rank (pJ)
system.mem_ctrls_0.averagePower            268.720522                       # Core power per rank (mW)
system.mem_ctrls_0.totalIdleTime         2468153535750                       # Total Idle time Per DRAM Rank
system.mem_ctrls_0.memoryStateTime::IDLE   1648833750                       # Time in different power states
system.mem_ctrls_0.memoryStateTime::REF    8213990000                       # Time in different power states
system.mem_ctrls_0.memoryStateTime::SREF 2322555791000                       # Time in different power states
system.mem_ctrls_0.memoryStateTime::PRE_PDN  56357302750                       # Time in different power states
system.mem_ctrls_0.memoryStateTime::ACT   57453414250                       # Time in different power states
system.mem_ctrls_0.memoryStateTime::ACT_PDN  89240602750                       # Time in different power states
system.mem_ctrls_1.actEnergy               1350095460                       # Energy for activate commands per rank (pJ)
system.mem_ctrls_1.preEnergy                717592755                       # Energy for precharge commands per rank (pJ)
system.mem_ctrls_1.readEnergy              4835350800                       # Energy for read commands per rank (pJ)
system.mem_ctrls_1.writeEnergy             2040022980                       # Energy for write commands per rank (pJ)
system.mem_ctrls_1.refreshEnergy         19704129120.000004                       # Energy for refresh commands per rank (pJ)
system.mem_ctrls_1.actBackEnergy          29316270780                       # Energy for active background per rank (pJ)
system.mem_ctrls_1.preBackEnergy           1039991040                       # Energy for precharge background per rank (pJ)
system.mem_ctrls_1.actPowerDownEnergy     41204631390                       # Energy for active power-down per rank (pJ)
system.mem_ctrls_1.prePowerDownEnergy     22437028800                       # Energy for precharge power-down per rank (pJ)
system.mem_ctrls_1.selfRefreshEnergy     559298477820                       # Energy for self refresh per rank (pJ)
system.mem_ctrls_1.totalEnergy           681950237085                       # Total energy per rank (pJ)
system.mem_ctrls_1.averagePower            268.964040                       # Core power per rank (mW)
system.mem_ctrls_1.totalIdleTime         2468456520500                       # Total Idle time Per DRAM Rank
system.mem_ctrls_1.memoryStateTime::IDLE   1698207000                       # Time in different power states
system.mem_ctrls_1.memoryStateTime::REF    8363892000                       # Time in different power states
system.mem_ctrls_1.memoryStateTime::SREF 2319665952000                       # Time in different power states
system.mem_ctrls_1.memoryStateTime::PRE_PDN  58429688000                       # Time in different power states
system.mem_ctrls_1.memoryStateTime::ACT   56951300000                       # Time in different power states
system.mem_ctrls_1.memoryStateTime::ACT_PDN  90360895500                       # Time in different power states
system.pwrStateResidencyTicks::UNDEFINED 2535469934500                       # Cumulative time (in ticks) in various power states
system.bridge.pwrStateResidencyTicks::UNDEFINED 2535469934500                       # Cumulative time (in ticks) in various power states
system.cpu_voltage_domain.voltage                   1                       # Voltage in Volts
system.cpu_clk_domain.clock                       500                       # Clock period in ticks
system.cpu0.dtb.fetch_hits                          0                       # ITB hits
system.cpu0.dtb.fetch_misses                        0                       # ITB misses
system.cpu0.dtb.fetch_acv                           0                       # ITB acv
system.cpu0.dtb.fetch_accesses                      0                       # ITB accesses
system.cpu0.dtb.read_hits                    11558952                       # DTB read hits
system.cpu0.dtb.read_misses                      3106                       # DTB read misses
system.cpu0.dtb.read_acv                            0                       # DTB read access violations
system.cpu0.dtb.read_accesses                  246038                       # DTB read accesses
system.cpu0.dtb.write_hits                    5597467                       # DTB write hits
system.cpu0.dtb.write_misses                      348                       # DTB write misses
system.cpu0.dtb.write_acv                          33                       # DTB write access violations
system.cpu0.dtb.write_accesses                 108494                       # DTB write accesses
system.cpu0.dtb.data_hits                    17156419                       # DTB hits
system.cpu0.dtb.data_misses                      3454                       # DTB misses
system.cpu0.dtb.data_acv                           33                       # DTB access violations
system.cpu0.dtb.data_accesses                  354532                       # DTB accesses
system.cpu0.itb.fetch_hits                    2524001                       # ITB hits
system.cpu0.itb.fetch_misses                     1280                       # ITB misses
system.cpu0.itb.fetch_acv                           0                       # ITB acv
system.cpu0.itb.fetch_accesses                2525281                       # ITB accesses
system.cpu0.itb.read_hits                           0                       # DTB read hits
system.cpu0.itb.read_misses                         0                       # DTB read misses
system.cpu0.itb.read_acv                            0                       # DTB read access violations
system.cpu0.itb.read_accesses                       0                       # DTB read accesses
system.cpu0.itb.write_hits                          0                       # DTB write hits
system.cpu0.itb.write_misses                        0                       # DTB write misses
system.cpu0.itb.write_acv                           0                       # DTB write access violations
system.cpu0.itb.write_accesses                      0                       # DTB write accesses
system.cpu0.itb.data_hits                           0                       # DTB hits
system.cpu0.itb.data_misses                         0                       # DTB misses
system.cpu0.itb.data_acv                            0                       # DTB access violations
system.cpu0.itb.data_accesses                       0                       # DTB accesses
system.cpu0.numPwrStateTransitions              14154                       # Number of power state transitions
system.cpu0.pwrStateClkGateDist::samples         7077                       # Distribution of time spent in the clock gated state
system.cpu0.pwrStateClkGateDist::mean    324368735.127879                       # Distribution of time spent in the clock gated state
system.cpu0.pwrStateClkGateDist::stdev   449174376.171331                       # Distribution of time spent in the clock gated state
system.cpu0.pwrStateClkGateDist::1000-5e+10         7077    100.00%    100.00% # Distribution of time spent in the clock gated state
system.cpu0.pwrStateClkGateDist::min_value       221000                       # Distribution of time spent in the clock gated state
system.cpu0.pwrStateClkGateDist::max_value   2000000000                       # Distribution of time spent in the clock gated state
system.cpu0.pwrStateClkGateDist::total           7077                       # Distribution of time spent in the clock gated state
system.cpu0.pwrStateResidencyTicks::ON   239912396000                       # Cumulative time (in ticks) in various power states
system.cpu0.pwrStateResidencyTicks::CLK_GATED 2295557538500                       # Cumulative time (in ticks) in various power states
system.cpu0.numCycles                      5070939869                       # number of cpu cycles simulated
system.cpu0.numWorkItemsStarted                     0                       # number of work items this cpu started
system.cpu0.numWorkItemsCompleted                   0                       # number of work items this cpu completed
system.cpu0.kern.inst.arm                           0                       # number of arm instructions executed
system.cpu0.kern.inst.quiesce                    7077                       # number of quiesce instructions executed
system.cpu0.kern.callpal::cserve                    1      0.00%      0.00% # number of callpals executed
system.cpu0.kern.callpal::wripir                 1020      0.81%      0.81% # number of callpals executed
system.cpu0.kern.callpal::wrmces                    1      0.00%      0.81% # number of callpals executed
system.cpu0.kern.callpal::wrfen                     1      0.00%      0.81% # number of callpals executed
system.cpu0.kern.callpal::wrvptptr                  1      0.00%      0.81% # number of callpals executed
system.cpu0.kern.callpal::swpctx                 2025      1.61%      2.42% # number of callpals executed
system.cpu0.kern.callpal::tbi                      11      0.01%      2.43% # number of callpals executed
system.cpu0.kern.callpal::wrent                     7      0.01%      2.43% # number of callpals executed
system.cpu0.kern.callpal::swpipl               113549     90.08%     92.51% # number of callpals executed
system.cpu0.kern.callpal::rdps                   5336      4.23%     96.74% # number of callpals executed
system.cpu0.kern.callpal::wrkgp                     1      0.00%     96.74% # number of callpals executed
system.cpu0.kern.callpal::wrusp                     4      0.00%     96.75% # number of callpals executed
system.cpu0.kern.callpal::rdusp                     3      0.00%     96.75% # number of callpals executed
system.cpu0.kern.callpal::whami                     2      0.00%     96.75% # number of callpals executed
system.cpu0.kern.callpal::rti                    3888      3.08%     99.83% # number of callpals executed
system.cpu0.kern.callpal::callsys                 151      0.12%     99.95% # number of callpals executed
system.cpu0.kern.callpal::imb                      57      0.05%    100.00% # number of callpals executed
system.cpu0.kern.callpal::total                126058                       # number of callpals executed
system.cpu0.kern.inst.hwrei                    134133                       # number of hwrei instructions executed
system.cpu0.kern.mode_switch::kernel             5825                       # number of protection mode switches
system.cpu0.kern.mode_switch::user                481                       # number of protection mode switches
system.cpu0.kern.mode_switch::idle                  0                       # number of protection mode switches
system.cpu0.kern.mode_good::kernel                480                      
system.cpu0.kern.mode_good::user                  481                      
system.cpu0.kern.mode_good::idle                    0                      
system.cpu0.kern.mode_switch_good::kernel     0.082403                       # fraction of useful protection mode switches
system.cpu0.kern.mode_switch_good::user             1                       # fraction of useful protection mode switches
system.cpu0.kern.mode_switch_good::idle           nan                       # fraction of useful protection mode switches
system.cpu0.kern.mode_switch_good::total     0.152395                       # fraction of useful protection mode switches
system.cpu0.kern.mode_ticks::kernel      2532342284000     99.88%     99.88% # number of ticks spent at the given mode
system.cpu0.kern.mode_ticks::user          3126162500      0.12%    100.00% # number of ticks spent at the given mode
system.cpu0.kern.mode_ticks::idle                   0      0.00%    100.00% # number of ticks spent at the given mode
system.cpu0.kern.swap_context                    2026                       # number of times the context was actually changed
system.cpu0.kern.ipl_count::0                   45924     38.03%     38.03% # number of times we switched to this ipl
system.cpu0.kern.ipl_count::21                     11      0.01%     38.04% # number of times we switched to this ipl
system.cpu0.kern.ipl_count::22                   2539      2.10%     40.15% # number of times we switched to this ipl
system.cpu0.kern.ipl_count::30                    756      0.63%     40.77% # number of times we switched to this ipl
system.cpu0.kern.ipl_count::31                  71514     59.23%    100.00% # number of times we switched to this ipl
system.cpu0.kern.ipl_count::total              120744                       # number of times we switched to this ipl
system.cpu0.kern.ipl_good::0                    45812     48.65%     48.65% # number of times we switched to this ipl from a different ipl
system.cpu0.kern.ipl_good::21                      11      0.01%     48.66% # number of times we switched to this ipl from a different ipl
system.cpu0.kern.ipl_good::22                    2539      2.70%     51.35% # number of times we switched to this ipl from a different ipl
system.cpu0.kern.ipl_good::30                     756      0.80%     52.16% # number of times we switched to this ipl from a different ipl
system.cpu0.kern.ipl_good::31                   45056     47.84%    100.00% # number of times we switched to this ipl from a different ipl
system.cpu0.kern.ipl_good::total                94174                       # number of times we switched to this ipl from a different ipl
system.cpu0.kern.ipl_ticks::0            2438268616000     96.17%     96.17% # number of cycles we spent at this ipl
system.cpu0.kern.ipl_ticks::21               10746000      0.00%     96.17% # number of cycles we spent at this ipl
system.cpu0.kern.ipl_ticks::22             1569965000      0.06%     96.23% # number of cycles we spent at this ipl
system.cpu0.kern.ipl_ticks::30             1085946500      0.04%     96.27% # number of cycles we spent at this ipl
system.cpu0.kern.ipl_ticks::31            94533175000      3.73%    100.00% # number of cycles we spent at this ipl
system.cpu0.kern.ipl_ticks::total        2535468448500                       # number of cycles we spent at this ipl
system.cpu0.kern.ipl_used::0                 0.997561                       # fraction of swpipl calls that actually changed the ipl
system.cpu0.kern.ipl_used::21                       1                       # fraction of swpipl calls that actually changed the ipl
system.cpu0.kern.ipl_used::22                       1                       # fraction of swpipl calls that actually changed the ipl
system.cpu0.kern.ipl_used::30                       1                       # fraction of swpipl calls that actually changed the ipl
system.cpu0.kern.ipl_used::31                0.630030                       # fraction of swpipl calls that actually changed the ipl
system.cpu0.kern.ipl_used::total             0.779948                       # fraction of swpipl calls that actually changed the ipl
system.cpu0.committedInsts                   67884501                       # Number of instructions committed
system.cpu0.committedOps                     67884501                       # Number of ops (including micro ops) committed
system.cpu0.num_int_alu_accesses             65581775                       # Number of integer alu accesses
system.cpu0.num_fp_alu_accesses                231544                       # Number of float alu accesses
system.cpu0.num_vec_alu_accesses                    0                       # Number of vector alu accesses
system.cpu0.num_func_calls                    2210634                       # number of times a function call or return occured
system.cpu0.num_conditional_control_insts      9057237                       # number of instructions that are conditional controls
system.cpu0.num_int_insts                    65581775                       # number of integer instructions
system.cpu0.num_fp_insts                       231544                       # number of float instructions
system.cpu0.num_vec_insts                           0                       # number of vector instructions
system.cpu0.num_int_register_reads           89048507                       # number of times the integer registers were read
system.cpu0.num_int_register_writes          50001966                       # number of times the integer registers were written
system.cpu0.num_fp_register_reads               79654                       # number of times the floating registers were read
system.cpu0.num_fp_register_writes              81019                       # number of times the floating registers were written
system.cpu0.num_vec_register_reads                  0                       # number of times the vector registers were read
system.cpu0.num_vec_register_writes                 0                       # number of times the vector registers were written
system.cpu0.num_mem_refs                     17181805                       # number of memory refs
system.cpu0.num_load_insts                   11573565                       # Number of load instructions
system.cpu0.num_store_insts                   5608240                       # Number of store instructions
system.cpu0.num_idle_cycles              4591115076.998189                       # Number of idle cycles
system.cpu0.num_busy_cycles              479824792.001811                       # Number of busy cycles
system.cpu0.not_idle_fraction                0.094622                       # Percentage of non-idle cycles
system.cpu0.idle_fraction                    0.905378                       # Percentage of idle cycles
system.cpu0.Branches                         11682931                       # Number of branches fetched
system.cpu0.op_class::No_OpClass              1396725      2.06%      2.06% # Class of executed instruction
system.cpu0.op_class::IntAlu                 48146314     70.92%     72.98% # Class of executed instruction
system.cpu0.op_class::IntMult                  151424      0.22%     73.20% # Class of executed instruction
system.cpu0.op_class::IntDiv                        0      0.00%     73.20% # Class of executed instruction
system.cpu0.op_class::FloatAdd                  95349      0.14%     73.34% # Class of executed instruction
system.cpu0.op_class::FloatCmp                      0      0.00%     73.34% # Class of executed instruction
system.cpu0.op_class::FloatCvt                      0      0.00%     73.34% # Class of executed instruction
system.cpu0.op_class::FloatMult                     0      0.00%     73.34% # Class of executed instruction
system.cpu0.op_class::FloatMultAcc                  0      0.00%     73.34% # Class of executed instruction
system.cpu0.op_class::FloatDiv                   2102      0.00%     73.34% # Class of executed instruction
system.cpu0.op_class::FloatMisc                     0      0.00%     73.34% # Class of executed instruction
system.cpu0.op_class::FloatSqrt                     0      0.00%     73.34% # Class of executed instruction
system.cpu0.op_class::SimdAdd                       0      0.00%     73.34% # Class of executed instruction
system.cpu0.op_class::SimdAddAcc                    0      0.00%     73.34% # Class of executed instruction
system.cpu0.op_class::SimdAlu                       0      0.00%     73.34% # Class of executed instruction
system.cpu0.op_class::SimdCmp                       0      0.00%     73.34% # Class of executed instruction
system.cpu0.op_class::SimdCvt                       0      0.00%     73.34% # Class of executed instruction
system.cpu0.op_class::SimdMisc                      0      0.00%     73.34% # Class of executed instruction
system.cpu0.op_class::SimdMult                      0      0.00%     73.34% # Class of executed instruction
system.cpu0.op_class::SimdMultAcc                   0      0.00%     73.34% # Class of executed instruction
system.cpu0.op_class::SimdShift                     0      0.00%     73.34% # Class of executed instruction
system.cpu0.op_class::SimdShiftAcc                  0      0.00%     73.34% # Class of executed instruction
system.cpu0.op_class::SimdSqrt                      0      0.00%     73.34% # Class of executed instruction
system.cpu0.op_class::SimdFloatAdd                  0      0.00%     73.34% # Class of executed instruction
system.cpu0.op_class::SimdFloatAlu                  0      0.00%     73.34% # Class of executed instruction
system.cpu0.op_class::SimdFloatCmp                  0      0.00%     73.34% # Class of executed instruction
system.cpu0.op_class::SimdFloatCvt                  0      0.00%     73.34% # Class of executed instruction
system.cpu0.op_class::SimdFloatDiv                  0      0.00%     73.34% # Class of executed instruction
system.cpu0.op_class::SimdFloatMisc                 0      0.00%     73.34% # Class of executed instruction
system.cpu0.op_class::SimdFloatMult                 0      0.00%     73.34% # Class of executed instruction
system.cpu0.op_class::SimdFloatMultAcc              0      0.00%     73.34% # Class of executed instruction
system.cpu0.op_class::SimdFloatSqrt                 0      0.00%     73.34% # Class of executed instruction
system.cpu0.op_class::MemRead                11823200     17.42%     90.76% # Class of executed instruction
system.cpu0.op_class::MemWrite                5559722      8.19%     98.95% # Class of executed instruction
system.cpu0.op_class::FloatMemRead              68782      0.10%     99.05% # Class of executed instruction
system.cpu0.op_class::FloatMemWrite             65311      0.10%     99.15% # Class of executed instruction
system.cpu0.op_class::IprAccess                579059      0.85%    100.00% # Class of executed instruction
system.cpu0.op_class::InstPrefetch                  0      0.00%    100.00% # Class of executed instruction
system.cpu0.op_class::total                  67887988                       # Class of executed instruction
system.cpu0.dcache.tags.pwrStateResidencyTicks::UNDEFINED 2535469934500                       # Cumulative time (in ticks) in various power states
system.cpu0.dcache.tags.replacements          3043585                       # number of replacements
system.cpu0.dcache.tags.tagsinuse         2019.423945                       # Cycle average of tags in use
system.cpu0.dcache.tags.total_refs           14066070                       # Total number of references to valid blocks.
system.cpu0.dcache.tags.sampled_refs          3043585                       # Sample count of references to valid blocks.
system.cpu0.dcache.tags.avg_refs             4.621547                       # Average number of references to valid blocks.
system.cpu0.dcache.tags.warmup_cycle        265721500                       # Cycle when the warmup percentage was hit.
system.cpu0.dcache.tags.occ_blocks::cpu0.data  2019.423945                       # Average occupied blocks per requestor
system.cpu0.dcache.tags.occ_percent::cpu0.data     0.986047                       # Average percentage of cache occupancy
system.cpu0.dcache.tags.occ_percent::total     0.986047                       # Average percentage of cache occupancy
system.cpu0.dcache.tags.occ_task_id_blocks::1024         2048                       # Occupied blocks per task id
system.cpu0.dcache.tags.age_task_id_blocks_1024::0          101                       # Occupied blocks per task id
system.cpu0.dcache.tags.age_task_id_blocks_1024::1          903                       # Occupied blocks per task id
system.cpu0.dcache.tags.age_task_id_blocks_1024::2         1044                       # Occupied blocks per task id
system.cpu0.dcache.tags.occ_task_id_percent::1024            1                       # Percentage of cache occupancy per task id
system.cpu0.dcache.tags.tag_accesses         20249580                       # Number of tag accesses
system.cpu0.dcache.tags.data_accesses        20249580                       # Number of data accesses
system.cpu0.dcache.pwrStateResidencyTicks::UNDEFINED 2535469934500                       # Cumulative time (in ticks) in various power states
system.cpu0.dcache.ReadReq_hits::cpu0.data      9267154                       # number of ReadReq hits
system.cpu0.dcache.ReadReq_hits::total        9267154                       # number of ReadReq hits
system.cpu0.dcache.WriteReq_hits::cpu0.data      4342754                       # number of WriteReq hits
system.cpu0.dcache.WriteReq_hits::total       4342754                       # number of WriteReq hits
system.cpu0.dcache.LoadLockedReq_hits::cpu0.data       209303                       # number of LoadLockedReq hits
system.cpu0.dcache.LoadLockedReq_hits::total       209303                       # number of LoadLockedReq hits
system.cpu0.dcache.StoreCondReq_hits::cpu0.data       213165                       # number of StoreCondReq hits
system.cpu0.dcache.StoreCondReq_hits::total       213165                       # number of StoreCondReq hits
system.cpu0.dcache.demand_hits::cpu0.data     13609908                       # number of demand (read+write) hits
system.cpu0.dcache.demand_hits::total        13609908                       # number of demand (read+write) hits
system.cpu0.dcache.overall_hits::cpu0.data     13609908                       # number of overall hits
system.cpu0.dcache.overall_hits::total       13609908                       # number of overall hits
system.cpu0.dcache.ReadReq_misses::cpu0.data      2071130                       # number of ReadReq misses
system.cpu0.dcache.ReadReq_misses::total      2071130                       # number of ReadReq misses
system.cpu0.dcache.WriteReq_misses::cpu0.data      1029222                       # number of WriteReq misses
system.cpu0.dcache.WriteReq_misses::total      1029222                       # number of WriteReq misses
system.cpu0.dcache.LoadLockedReq_misses::cpu0.data        17650                       # number of LoadLockedReq misses
system.cpu0.dcache.LoadLockedReq_misses::total        17650                       # number of LoadLockedReq misses
system.cpu0.dcache.StoreCondReq_misses::cpu0.data         8952                       # number of StoreCondReq misses
system.cpu0.dcache.StoreCondReq_misses::total         8952                       # number of StoreCondReq misses
system.cpu0.dcache.demand_misses::cpu0.data      3100352                       # number of demand (read+write) misses
system.cpu0.dcache.demand_misses::total       3100352                       # number of demand (read+write) misses
system.cpu0.dcache.overall_misses::cpu0.data      3100352                       # number of overall misses
system.cpu0.dcache.overall_misses::total      3100352                       # number of overall misses
system.cpu0.dcache.ReadReq_miss_latency::cpu0.data  50358703000                       # number of ReadReq miss cycles
system.cpu0.dcache.ReadReq_miss_latency::total  50358703000                       # number of ReadReq miss cycles
system.cpu0.dcache.WriteReq_miss_latency::cpu0.data  65341060500                       # number of WriteReq miss cycles
system.cpu0.dcache.WriteReq_miss_latency::total  65341060500                       # number of WriteReq miss cycles
system.cpu0.dcache.LoadLockedReq_miss_latency::cpu0.data    210158500                       # number of LoadLockedReq miss cycles
system.cpu0.dcache.LoadLockedReq_miss_latency::total    210158500                       # number of LoadLockedReq miss cycles
system.cpu0.dcache.StoreCondReq_miss_latency::cpu0.data     47944500                       # number of StoreCondReq miss cycles
system.cpu0.dcache.StoreCondReq_miss_latency::total     47944500                       # number of StoreCondReq miss cycles
system.cpu0.dcache.StoreCondFailReq_miss_latency::cpu0.data        11000                       # number of StoreCondFailReq miss cycles
system.cpu0.dcache.StoreCondFailReq_miss_latency::total        11000                       # number of StoreCondFailReq miss cycles
system.cpu0.dcache.demand_miss_latency::cpu0.data 115699763500                       # number of demand (read+write) miss cycles
system.cpu0.dcache.demand_miss_latency::total 115699763500                       # number of demand (read+write) miss cycles
system.cpu0.dcache.overall_miss_latency::cpu0.data 115699763500                       # number of overall miss cycles
system.cpu0.dcache.overall_miss_latency::total 115699763500                       # number of overall miss cycles
system.cpu0.dcache.ReadReq_accesses::cpu0.data     11338284                       # number of ReadReq accesses(hits+misses)
system.cpu0.dcache.ReadReq_accesses::total     11338284                       # number of ReadReq accesses(hits+misses)
system.cpu0.dcache.WriteReq_accesses::cpu0.data      5371976                       # number of WriteReq accesses(hits+misses)
system.cpu0.dcache.WriteReq_accesses::total      5371976                       # number of WriteReq accesses(hits+misses)
system.cpu0.dcache.LoadLockedReq_accesses::cpu0.data       226953                       # number of LoadLockedReq accesses(hits+misses)
system.cpu0.dcache.LoadLockedReq_accesses::total       226953                       # number of LoadLockedReq accesses(hits+misses)
system.cpu0.dcache.StoreCondReq_accesses::cpu0.data       222117                       # number of StoreCondReq accesses(hits+misses)
system.cpu0.dcache.StoreCondReq_accesses::total       222117                       # number of StoreCondReq accesses(hits+misses)
system.cpu0.dcache.demand_accesses::cpu0.data     16710260                       # number of demand (read+write) accesses
system.cpu0.dcache.demand_accesses::total     16710260                       # number of demand (read+write) accesses
system.cpu0.dcache.overall_accesses::cpu0.data     16710260                       # number of overall (read+write) accesses
system.cpu0.dcache.overall_accesses::total     16710260                       # number of overall (read+write) accesses
system.cpu0.dcache.ReadReq_miss_rate::cpu0.data     0.182667                       # miss rate for ReadReq accesses
system.cpu0.dcache.ReadReq_miss_rate::total     0.182667                       # miss rate for ReadReq accesses
system.cpu0.dcache.WriteReq_miss_rate::cpu0.data     0.191591                       # miss rate for WriteReq accesses
system.cpu0.dcache.WriteReq_miss_rate::total     0.191591                       # miss rate for WriteReq accesses
system.cpu0.dcache.LoadLockedReq_miss_rate::cpu0.data     0.077769                       # miss rate for LoadLockedReq accesses
system.cpu0.dcache.LoadLockedReq_miss_rate::total     0.077769                       # miss rate for LoadLockedReq accesses
system.cpu0.dcache.StoreCondReq_miss_rate::cpu0.data     0.040303                       # miss rate for StoreCondReq accesses
system.cpu0.dcache.StoreCondReq_miss_rate::total     0.040303                       # miss rate for StoreCondReq accesses
system.cpu0.dcache.demand_miss_rate::cpu0.data     0.185536                       # miss rate for demand accesses
system.cpu0.dcache.demand_miss_rate::total     0.185536                       # miss rate for demand accesses
system.cpu0.dcache.overall_miss_rate::cpu0.data     0.185536                       # miss rate for overall accesses
system.cpu0.dcache.overall_miss_rate::total     0.185536                       # miss rate for overall accesses
system.cpu0.dcache.ReadReq_avg_miss_latency::cpu0.data 24314.602657                       # average ReadReq miss latency
system.cpu0.dcache.ReadReq_avg_miss_latency::total 24314.602657                       # average ReadReq miss latency
system.cpu0.dcache.WriteReq_avg_miss_latency::cpu0.data 63485.876225                       # average WriteReq miss latency
system.cpu0.dcache.WriteReq_avg_miss_latency::total 63485.876225                       # average WriteReq miss latency
system.cpu0.dcache.LoadLockedReq_avg_miss_latency::cpu0.data 11906.997167                       # average LoadLockedReq miss latency
system.cpu0.dcache.LoadLockedReq_avg_miss_latency::total 11906.997167                       # average LoadLockedReq miss latency
system.cpu0.dcache.StoreCondReq_avg_miss_latency::cpu0.data  5355.730563                       # average StoreCondReq miss latency
system.cpu0.dcache.StoreCondReq_avg_miss_latency::total  5355.730563                       # average StoreCondReq miss latency
system.cpu0.dcache.StoreCondFailReq_avg_miss_latency::cpu0.data          inf                       # average StoreCondFailReq miss latency
system.cpu0.dcache.StoreCondFailReq_avg_miss_latency::total          inf                       # average StoreCondFailReq miss latency
system.cpu0.dcache.demand_avg_miss_latency::cpu0.data 37318.266926                       # average overall miss latency
system.cpu0.dcache.demand_avg_miss_latency::total 37318.266926                       # average overall miss latency
system.cpu0.dcache.overall_avg_miss_latency::cpu0.data 37318.266926                       # average overall miss latency
system.cpu0.dcache.overall_avg_miss_latency::total 37318.266926                       # average overall miss latency
system.cpu0.dcache.blocked_cycles::no_mshrs            0                       # number of cycles access was blocked
system.cpu0.dcache.blocked_cycles::no_targets            0                       # number of cycles access was blocked
system.cpu0.dcache.blocked::no_mshrs                0                       # number of cycles access was blocked
system.cpu0.dcache.blocked::no_targets              0                       # number of cycles access was blocked
system.cpu0.dcache.avg_blocked_cycles::no_mshrs          nan                       # average number of cycles each access was blocked
system.cpu0.dcache.avg_blocked_cycles::no_targets          nan                       # average number of cycles each access was blocked
system.cpu0.dcache.writebacks::writebacks      2589761                       # number of writebacks
system.cpu0.dcache.writebacks::total          2589761                       # number of writebacks
system.cpu0.dcache.ReadReq_mshr_misses::cpu0.data      2071130                       # number of ReadReq MSHR misses
system.cpu0.dcache.ReadReq_mshr_misses::total      2071130                       # number of ReadReq MSHR misses
system.cpu0.dcache.WriteReq_mshr_misses::cpu0.data      1029222                       # number of WriteReq MSHR misses
system.cpu0.dcache.WriteReq_mshr_misses::total      1029222                       # number of WriteReq MSHR misses
system.cpu0.dcache.LoadLockedReq_mshr_misses::cpu0.data        17650                       # number of LoadLockedReq MSHR misses
system.cpu0.dcache.LoadLockedReq_mshr_misses::total        17650                       # number of LoadLockedReq MSHR misses
system.cpu0.dcache.StoreCondReq_mshr_misses::cpu0.data         8952                       # number of StoreCondReq MSHR misses
system.cpu0.dcache.StoreCondReq_mshr_misses::total         8952                       # number of StoreCondReq MSHR misses
system.cpu0.dcache.demand_mshr_misses::cpu0.data      3100352                       # number of demand (read+write) MSHR misses
system.cpu0.dcache.demand_mshr_misses::total      3100352                       # number of demand (read+write) MSHR misses
system.cpu0.dcache.overall_mshr_misses::cpu0.data      3100352                       # number of overall MSHR misses
system.cpu0.dcache.overall_mshr_misses::total      3100352                       # number of overall MSHR misses
system.cpu0.dcache.ReadReq_mshr_uncacheable::cpu0.data         5222                       # number of ReadReq MSHR uncacheable
system.cpu0.dcache.ReadReq_mshr_uncacheable::total         5222                       # number of ReadReq MSHR uncacheable
system.cpu0.dcache.WriteReq_mshr_uncacheable::cpu0.data         9875                       # number of WriteReq MSHR uncacheable
system.cpu0.dcache.WriteReq_mshr_uncacheable::total         9875                       # number of WriteReq MSHR uncacheable
system.cpu0.dcache.overall_mshr_uncacheable_misses::cpu0.data        15097                       # number of overall MSHR uncacheable misses
system.cpu0.dcache.overall_mshr_uncacheable_misses::total        15097                       # number of overall MSHR uncacheable misses
system.cpu0.dcache.ReadReq_mshr_miss_latency::cpu0.data  48287573000                       # number of ReadReq MSHR miss cycles
system.cpu0.dcache.ReadReq_mshr_miss_latency::total  48287573000                       # number of ReadReq MSHR miss cycles
system.cpu0.dcache.WriteReq_mshr_miss_latency::cpu0.data  64311838500                       # number of WriteReq MSHR miss cycles
system.cpu0.dcache.WriteReq_mshr_miss_latency::total  64311838500                       # number of WriteReq MSHR miss cycles
system.cpu0.dcache.LoadLockedReq_mshr_miss_latency::cpu0.data    192508500                       # number of LoadLockedReq MSHR miss cycles
system.cpu0.dcache.LoadLockedReq_mshr_miss_latency::total    192508500                       # number of LoadLockedReq MSHR miss cycles
system.cpu0.dcache.StoreCondReq_mshr_miss_latency::cpu0.data     38994500                       # number of StoreCondReq MSHR miss cycles
system.cpu0.dcache.StoreCondReq_mshr_miss_latency::total     38994500                       # number of StoreCondReq MSHR miss cycles
system.cpu0.dcache.StoreCondFailReq_mshr_miss_latency::cpu0.data         9000                       # number of StoreCondFailReq MSHR miss cycles
system.cpu0.dcache.StoreCondFailReq_mshr_miss_latency::total         9000                       # number of StoreCondFailReq MSHR miss cycles
system.cpu0.dcache.demand_mshr_miss_latency::cpu0.data 112599411500                       # number of demand (read+write) MSHR miss cycles
system.cpu0.dcache.demand_mshr_miss_latency::total 112599411500                       # number of demand (read+write) MSHR miss cycles
system.cpu0.dcache.overall_mshr_miss_latency::cpu0.data 112599411500                       # number of overall MSHR miss cycles
system.cpu0.dcache.overall_mshr_miss_latency::total 112599411500                       # number of overall MSHR miss cycles
system.cpu0.dcache.ReadReq_mshr_uncacheable_latency::cpu0.data   1189365000                       # number of ReadReq MSHR uncacheable cycles
system.cpu0.dcache.ReadReq_mshr_uncacheable_latency::total   1189365000                       # number of ReadReq MSHR uncacheable cycles
system.cpu0.dcache.overall_mshr_uncacheable_latency::cpu0.data   1189365000                       # number of overall MSHR uncacheable cycles
system.cpu0.dcache.overall_mshr_uncacheable_latency::total   1189365000                       # number of overall MSHR uncacheable cycles
system.cpu0.dcache.ReadReq_mshr_miss_rate::cpu0.data     0.182667                       # mshr miss rate for ReadReq accesses
system.cpu0.dcache.ReadReq_mshr_miss_rate::total     0.182667                       # mshr miss rate for ReadReq accesses
system.cpu0.dcache.WriteReq_mshr_miss_rate::cpu0.data     0.191591                       # mshr miss rate for WriteReq accesses
system.cpu0.dcache.WriteReq_mshr_miss_rate::total     0.191591                       # mshr miss rate for WriteReq accesses
system.cpu0.dcache.LoadLockedReq_mshr_miss_rate::cpu0.data     0.077769                       # mshr miss rate for LoadLockedReq accesses
system.cpu0.dcache.LoadLockedReq_mshr_miss_rate::total     0.077769                       # mshr miss rate for LoadLockedReq accesses
system.cpu0.dcache.StoreCondReq_mshr_miss_rate::cpu0.data     0.040303                       # mshr miss rate for StoreCondReq accesses
system.cpu0.dcache.StoreCondReq_mshr_miss_rate::total     0.040303                       # mshr miss rate for StoreCondReq accesses
system.cpu0.dcache.demand_mshr_miss_rate::cpu0.data     0.185536                       # mshr miss rate for demand accesses
system.cpu0.dcache.demand_mshr_miss_rate::total     0.185536                       # mshr miss rate for demand accesses
system.cpu0.dcache.overall_mshr_miss_rate::cpu0.data     0.185536                       # mshr miss rate for overall accesses
system.cpu0.dcache.overall_mshr_miss_rate::total     0.185536                       # mshr miss rate for overall accesses
system.cpu0.dcache.ReadReq_avg_mshr_miss_latency::cpu0.data 23314.602657                       # average ReadReq mshr miss latency
system.cpu0.dcache.ReadReq_avg_mshr_miss_latency::total 23314.602657                       # average ReadReq mshr miss latency
system.cpu0.dcache.WriteReq_avg_mshr_miss_latency::cpu0.data 62485.876225                       # average WriteReq mshr miss latency
system.cpu0.dcache.WriteReq_avg_mshr_miss_latency::total 62485.876225                       # average WriteReq mshr miss latency
system.cpu0.dcache.LoadLockedReq_avg_mshr_miss_latency::cpu0.data 10906.997167                       # average LoadLockedReq mshr miss latency
system.cpu0.dcache.LoadLockedReq_avg_mshr_miss_latency::total 10906.997167                       # average LoadLockedReq mshr miss latency
system.cpu0.dcache.StoreCondReq_avg_mshr_miss_latency::cpu0.data  4355.953977                       # average StoreCondReq mshr miss latency
system.cpu0.dcache.StoreCondReq_avg_mshr_miss_latency::total  4355.953977                       # average StoreCondReq mshr miss latency
system.cpu0.dcache.StoreCondFailReq_avg_mshr_miss_latency::cpu0.data          inf                       # average StoreCondFailReq mshr miss latency
system.cpu0.dcache.StoreCondFailReq_avg_mshr_miss_latency::total          inf                       # average StoreCondFailReq mshr miss latency
system.cpu0.dcache.demand_avg_mshr_miss_latency::cpu0.data 36318.266926                       # average overall mshr miss latency
system.cpu0.dcache.demand_avg_mshr_miss_latency::total 36318.266926                       # average overall mshr miss latency
system.cpu0.dcache.overall_avg_mshr_miss_latency::cpu0.data 36318.266926                       # average overall mshr miss latency
[...]
system.membus.pkt_size::total                 2063413                       # Cumulative packet size per connected master and slave (bytes)
system.membus.snoops                             3065                       # Total snoops (count)
system.membus.snoopTraffic                        480                       # Total snoop traffic (bytes)
system.membus.snoop_fanout::samples             98335                       # Request fanout histogram
system.membus.snoop_fanout::mean             0.021518                       # Request fanout histogram
system.membus.snoop_fanout::stdev            0.145105                       # Request fanout histogram
system.membus.snoop_fanout::underflows              0      0.00%      0.00% # Request fanout histogram
system.membus.snoop_fanout::0                   96219     97.85%     97.85% # Request fanout histogram
system.membus.snoop_fanout::1                    2116      2.15%    100.00% # Request fanout histogram
system.membus.snoop_fanout::2                       0      0.00%    100.00% # Request fanout histogram
system.membus.snoop_fanout::overflows               0      0.00%    100.00% # Request fanout histogram
system.membus.snoop_fanout::min_value               0                       # Request fanout histogram
system.membus.snoop_fanout::max_value               1                       # Request fanout histogram
system.membus.snoop_fanout::total               98335                       # Request fanout histogram
system.membus.reqLayer0.occupancy             1836500                       # Layer occupancy (ticks)
system.membus.reqLayer0.utilization               0.0                       # Layer utilization (%)
system.membus.reqLayer1.occupancy           268213136                       # Layer occupancy (ticks)
system.membus.reqLayer1.utilization               3.0                       # Layer utilization (%)
system.membus.respLayer1.occupancy            2280364                       # Layer occupancy (ticks)
system.membus.respLayer1.utilization              0.0                       # Layer utilization (%)
system.membus.respLayer2.occupancy          117534000                       # Layer occupancy (ticks)
system.membus.respLayer2.utilization              1.3                       # Layer utilization (%)
system.membus.badaddr_responder.pwrStateResidencyTicks::UNDEFINED   8819098000                       # Cumulative time (in ticks) in various power states
system.tol2bus.snoop_filter.tot_requests       495596                       # Total number of requests made to the snoop filter.
system.tol2bus.snoop_filter.hit_single_requests       230388                       # Number of requests hitting in the snoop filter with a single holder of the requested data.
system.tol2bus.snoop_filter.hit_multi_requests        53431                       # Number of requests hitting in the snoop filter with multiple (>1) holders of the requested data.
system.tol2bus.snoop_filter.tot_snoops           3674                       # Total number of snoops made to the snoop filter.
system.tol2bus.snoop_filter.hit_single_snoops         3251                       # Number of snoops hitting in the snoop filter with a single holder of the requested data.
system.tol2bus.snoop_filter.hit_multi_snoops          423                       # Number of snoops hitting in the snoop filter with multiple (>1) holders of the requested data.
system.tol2bus.pwrStateResidencyTicks::UNDEFINED   8819098000                       # Cumulative time (in ticks) in various power states
system.tol2bus.trans_dist::ReadReq                590                       # Transaction distribution
system.tol2bus.trans_dist::ReadResp            187299                       # Transaction distribution
system.tol2bus.trans_dist::WriteReq               479                       # Transaction distribution
system.tol2bus.trans_dist::WriteResp              479                       # Transaction distribution
system.tol2bus.trans_dist::WritebackDirty       119154                       # Transaction distribution
system.tol2bus.trans_dist::WritebackClean       135113                       # Transaction distribution
system.tol2bus.trans_dist::CleanEvict           42832                       # Transaction distribution
system.tol2bus.trans_dist::UpgradeReq             741                       # Transaction distribution
system.tol2bus.trans_dist::SCUpgradeReq           221                       # Transaction distribution
system.tol2bus.trans_dist::UpgradeResp            962                       # Transaction distribution
system.tol2bus.trans_dist::ReadExReq            62077                       # Transaction distribution
system.tol2bus.trans_dist::ReadExResp           62077                       # Transaction distribution
system.tol2bus.trans_dist::ReadCleanReq        135118                       # Transaction distribution
system.tol2bus.trans_dist::ReadSharedReq        51599                       # Transaction distribution
system.tol2bus.trans_dist::InvalidateReq         2086                       # Transaction distribution
system.tol2bus.trans_dist::InvalidateResp          203                       # Transaction distribution
system.tol2bus.pkt_count_system.cpu0.icache.mem_side::system.l2.cpu_side       115332                       # Packet count per connected master and slave (bytes)
system.tol2bus.pkt_count_system.cpu0.dcache.mem_side::system.l2.cpu_side       172677                       # Packet count per connected master and slave (bytes)
system.tol2bus.pkt_count_system.cpu1.icache.mem_side::system.l2.cpu_side        27590                       # Packet count per connected master and slave (bytes)
system.tol2bus.pkt_count_system.cpu1.dcache.mem_side::system.l2.cpu_side        24319                       # Packet count per connected master and slave (bytes)
system.tol2bus.pkt_count_system.cpu2.icache.mem_side::system.l2.cpu_side       228040                       # Packet count per connected master and slave (bytes)
system.tol2bus.pkt_count_system.cpu2.dcache.mem_side::system.l2.cpu_side       110767                       # Packet count per connected master and slave (bytes)
system.tol2bus.pkt_count_system.cpu3.icache.mem_side::system.l2.cpu_side        34377                       # Packet count per connected master and slave (bytes)
system.tol2bus.pkt_count_system.cpu3.dcache.mem_side::system.l2.cpu_side        26586                       # Packet count per connected master and slave (bytes)
system.tol2bus.pkt_count::total                739688                       # Packet count per connected master and slave (bytes)
system.tol2bus.pkt_size_system.cpu0.icache.mem_side::system.l2.cpu_side      1230176                       # Cumulative packet size per connected master and slave (bytes)
system.tol2bus.pkt_size_system.cpu0.dcache.mem_side::system.l2.cpu_side      1603100                       # Cumulative packet size per connected master and slave (bytes)
system.tol2bus.pkt_size_system.cpu1.icache.mem_side::system.l2.cpu_side       294288                       # Cumulative packet size per connected master and slave (bytes)
system.tol2bus.pkt_size_system.cpu1.dcache.mem_side::system.l2.cpu_side       212820                       # Cumulative packet size per connected master and slave (bytes)
system.tol2bus.pkt_size_system.cpu2.icache.mem_side::system.l2.cpu_side      2432384                       # Cumulative packet size per connected master and slave (bytes)
system.tol2bus.pkt_size_system.cpu2.dcache.mem_side::system.l2.cpu_side      1032337                       # Cumulative packet size per connected master and slave (bytes)
system.tol2bus.pkt_size_system.cpu3.icache.mem_side::system.l2.cpu_side       366688                       # Cumulative packet size per connected master and slave (bytes)
system.tol2bus.pkt_size_system.cpu3.dcache.mem_side::system.l2.cpu_side       240116                       # Cumulative packet size per connected master and slave (bytes)
system.tol2bus.pkt_size::total                7411909                       # Cumulative packet size per connected master and slave (bytes)
system.tol2bus.snoops                           61567                       # Total snoops (count)
system.tol2bus.snoopTraffic                    639280                       # Total snoop traffic (bytes)
system.tol2bus.snoop_fanout::samples           304140                       # Request fanout histogram
system.tol2bus.snoop_fanout::mean            0.226205                       # Request fanout histogram
system.tol2bus.snoop_fanout::stdev           0.644312                       # Request fanout histogram
system.tol2bus.snoop_fanout::underflows             0      0.00%      0.00% # Request fanout histogram
system.tol2bus.snoop_fanout::0                 262545     86.32%     86.32% # Request fanout histogram
system.tol2bus.snoop_fanout::1                  23695      7.79%     94.11% # Request fanout histogram
system.tol2bus.snoop_fanout::2                   8603      2.83%     96.94% # Request fanout histogram
system.tol2bus.snoop_fanout::3                   9291      3.05%    100.00% # Request fanout histogram
system.tol2bus.snoop_fanout::4                      6      0.00%    100.00% # Request fanout histogram
system.tol2bus.snoop_fanout::5                      0      0.00%    100.00% # Request fanout histogram
system.tol2bus.snoop_fanout::6                      0      0.00%    100.00% # Request fanout histogram
system.tol2bus.snoop_fanout::7                      0      0.00%    100.00% # Request fanout histogram
system.tol2bus.snoop_fanout::8                      0      0.00%    100.00% # Request fanout histogram
system.tol2bus.snoop_fanout::overflows              0      0.00%    100.00% # Request fanout histogram
system.tol2bus.snoop_fanout::min_value              0                       # Request fanout histogram
system.tol2bus.snoop_fanout::max_value              4                       # Request fanout histogram
system.tol2bus.snoop_fanout::total             304140                       # Request fanout histogram
system.tol2bus.reqLayer0.occupancy          359324500                       # Layer occupancy (ticks)
system.tol2bus.reqLayer0.utilization              4.1                       # Layer utilization (%)
system.tol2bus.snoopLayer0.occupancy           131983                       # Layer occupancy (ticks)
system.tol2bus.snoopLayer0.utilization            0.0                       # Layer utilization (%)
system.tol2bus.respLayer0.occupancy          38466957                       # Layer occupancy (ticks)
system.tol2bus.respLayer0.utilization             0.4                       # Layer utilization (%)
system.tol2bus.respLayer1.occupancy          58814431                       # Layer occupancy (ticks)
system.tol2bus.respLayer1.utilization             0.7                       # Layer utilization (%)
system.tol2bus.respLayer2.occupancy           9217957                       # Layer occupancy (ticks)
system.tol2bus.respLayer2.utilization             0.1                       # Layer utilization (%)
system.tol2bus.respLayer3.occupancy           8748420                       # Layer occupancy (ticks)
system.tol2bus.respLayer3.utilization             0.1                       # Layer utilization (%)
system.tol2bus.respLayer4.occupancy          76054423                       # Layer occupancy (ticks)
system.tol2bus.respLayer4.utilization             0.9                       # Layer utilization (%)
system.tol2bus.respLayer5.occupancy          38027448                       # Layer occupancy (ticks)
system.tol2bus.respLayer5.utilization             0.4                       # Layer utilization (%)
system.tol2bus.respLayer6.occupancy          11486445                       # Layer occupancy (ticks)
system.tol2bus.respLayer6.utilization             0.1                       # Layer utilization (%)
system.tol2bus.respLayer7.occupancy           9526379                       # Layer occupancy (ticks)
system.tol2bus.respLayer7.utilization             0.1                       # Layer utilization (%)
system.tsunami.backdoor.pwrStateResidencyTicks::UNDEFINED   8819098000                       # Cumulative time (in ticks) in various power states
system.tsunami.cchip.pwrStateResidencyTicks::UNDEFINED   8819098000                       # Cumulative time (in ticks) in various power states
system.tsunami.pchip.pwrStateResidencyTicks::UNDEFINED   8819098000                       # Cumulative time (in ticks) in various power states
system.tsunami.ethernet.pwrStateResidencyTicks::UNDEFINED   8819098000                       # Cumulative time (in ticks) in various power states
system.tsunami.ethernet.descDMAReads                0                       # Number of descriptors the device read w/ DMA
system.tsunami.ethernet.descDMAWrites               0                       # Number of descriptors the device wrote w/ DMA
system.tsunami.ethernet.descDmaReadBytes            0                       # number of descriptor bytes read w/ DMA
system.tsunami.ethernet.descDmaWriteBytes            0                       # number of descriptor bytes write w/ DMA
system.tsunami.ethernet.postedSwi                   0                       # number of software interrupts posted to CPU
system.tsunami.ethernet.coalescedSwi              nan                       # average number of Swi's coalesced into each post
system.tsunami.ethernet.totalSwi                    0                       # total number of Swi written to ISR
system.tsunami.ethernet.postedRxIdle                0                       # number of rxIdle interrupts posted to CPU
system.tsunami.ethernet.coalescedRxIdle           nan                       # average number of RxIdle's coalesced into each post
system.tsunami.ethernet.totalRxIdle                 0                       # total number of RxIdle written to ISR
system.tsunami.ethernet.postedRxOk                  0                       # number of RxOk interrupts posted to CPU
system.tsunami.ethernet.coalescedRxOk             nan                       # average number of RxOk's coalesced into each post
system.tsunami.ethernet.totalRxOk                   0                       # total number of RxOk written to ISR
system.tsunami.ethernet.postedRxDesc                0                       # number of RxDesc interrupts posted to CPU
system.tsunami.ethernet.coalescedRxDesc           nan                       # average number of RxDesc's coalesced into each post
system.tsunami.ethernet.totalRxDesc                 0                       # total number of RxDesc written to ISR
system.tsunami.ethernet.postedTxOk                  0                       # number of TxOk interrupts posted to CPU
system.tsunami.ethernet.coalescedTxOk             nan                       # average number of TxOk's coalesced into each post
system.tsunami.ethernet.totalTxOk                   0                       # total number of TxOk written to ISR
system.tsunami.ethernet.postedTxIdle                0                       # number of TxIdle interrupts posted to CPU
system.tsunami.ethernet.coalescedTxIdle           nan                       # average number of TxIdle's coalesced into each post
system.tsunami.ethernet.totalTxIdle                 0                       # total number of TxIdle written to ISR
system.tsunami.ethernet.postedTxDesc                0                       # number of TxDesc interrupts posted to CPU
system.tsunami.ethernet.coalescedTxDesc           nan                       # average number of TxDesc's coalesced into each post
system.tsunami.ethernet.totalTxDesc                 0                       # total number of TxDesc written to ISR
system.tsunami.ethernet.postedRxOrn                 0                       # number of RxOrn posted to CPU
system.tsunami.ethernet.coalescedRxOrn            nan                       # average number of RxOrn's coalesced into each post
system.tsunami.ethernet.totalRxOrn                  0                       # total number of RxOrn written to ISR
system.tsunami.ethernet.coalescedTotal            nan                       # average number of interrupts coalesced into each post
system.tsunami.ethernet.postedInterrupts            0                       # number of posts to CPU
system.tsunami.ethernet.droppedPackets              0                       # number of packets dropped
system.tsunami.fake_OROM.pwrStateResidencyTicks::UNDEFINED   8819098000                       # Cumulative time (in ticks) in various power states
system.tsunami.fake_ata0.pwrStateResidencyTicks::UNDEFINED   8819098000                       # Cumulative time (in ticks) in various power states
system.tsunami.fake_ata1.pwrStateResidencyTicks::UNDEFINED   8819098000                       # Cumulative time (in ticks) in various power states
system.tsunami.fake_pnp_addr.pwrStateResidencyTicks::UNDEFINED   8819098000                       # Cumulative time (in ticks) in various power states
system.tsunami.fake_pnp_read0.pwrStateResidencyTicks::UNDEFINED   8819098000                       # Cumulative time (in ticks) in various power states
system.tsunami.fake_pnp_read1.pwrStateResidencyTicks::UNDEFINED   8819098000                       # Cumulative time (in ticks) in various power states
system.tsunami.fake_pnp_read2.pwrStateResidencyTicks::UNDEFINED   8819098000                       # Cumulative time (in ticks) in various power states
system.tsunami.fake_pnp_read3.pwrStateResidencyTicks::UNDEFINED   8819098000                       # Cumulative time (in ticks) in various power states
system.tsunami.fake_pnp_read4.pwrStateResidencyTicks::UNDEFINED   8819098000                       # Cumulative time (in ticks) in various power states
system.tsunami.fake_pnp_read5.pwrStateResidencyTicks::UNDEFINED   8819098000                       # Cumulative time (in ticks) in various power states
system.tsunami.fake_pnp_read6.pwrStateResidencyTicks::UNDEFINED   8819098000                       # Cumulative time (in ticks) in various power states
system.tsunami.fake_pnp_read7.pwrStateResidencyTicks::UNDEFINED   8819098000                       # Cumulative time (in ticks) in various power states
system.tsunami.fake_pnp_write.pwrStateResidencyTicks::UNDEFINED   8819098000                       # Cumulative time (in ticks) in various power states
system.tsunami.fake_ppc.pwrStateResidencyTicks::UNDEFINED   8819098000                       # Cumulative time (in ticks) in various power states
system.tsunami.fake_sm_chip.pwrStateResidencyTicks::UNDEFINED   8819098000                       # Cumulative time (in ticks) in various power states
system.tsunami.fake_uart1.pwrStateResidencyTicks::UNDEFINED   8819098000                       # Cumulative time (in ticks) in various power states
system.tsunami.fake_uart2.pwrStateResidencyTicks::UNDEFINED   8819098000                       # Cumulative time (in ticks) in various power states
system.tsunami.fake_uart3.pwrStateResidencyTicks::UNDEFINED   8819098000                       # Cumulative time (in ticks) in various power states
system.tsunami.fake_uart4.pwrStateResidencyTicks::UNDEFINED   8819098000                       # Cumulative time (in ticks) in various power states
system.tsunami.fb.pwrStateResidencyTicks::UNDEFINED   8819098000                       # Cumulative time (in ticks) in various power states
system.tsunami.ide.pwrStateResidencyTicks::UNDEFINED   8819098000                       # Cumulative time (in ticks) in various power states
system.tsunami.io.pwrStateResidencyTicks::UNDEFINED   8819098000                       # Cumulative time (in ticks) in various power states
system.tsunami.uart.pwrStateResidencyTicks::UNDEFINED   8819098000                       # Cumulative time (in ticks) in various power states

---------- End Simulation Statistics   ----------
