---------- Begin Simulation Statistics ----------
sim_seconds                                  0.014371                       # Number of seconds simulated
sim_ticks                                 14370903000                       # Number of ticks simulated
system.cpu.dcache.tags.replacements             83856                       # number of replacements
system.cpu.dcache.tags.total_refs              740929                       # Total number of references to valid blocks.
system.cpu.dcache.tags.avg_refs              8.424243                       # Average number of references to valid blocks.
system.cpu.dcache.tags.occ_percent::total            1                       # Average percentage of cache occupancy
system.cpu.dcache.tags.data_accesses          4859184                       # Number of data accesses
system.cpu.dcache.ReadReq_hits::total          298281                       # number of ReadReq hits
system.cpu.dcache.WriteReq_hits::total         203107                       # number of WriteReq hits
system.cpu.dcache.overall_hits::total          501388                       # number of overall hits
system.cpu.dcache.ReadReq_misses::total         30183                       # number of ReadReq misses
system.cpu.dcache.overall_misses::total         83064                       # number of overall misses
system.cpu.dcache.ReadReq_miss_rate::total     0.091891                       # miss rate for ReadReq accesses
system.cpu.dcache.WriteReq_miss_rate::total     0.206576                       # miss rate for WriteReq accesses
system.cpu.dcache.overall_miss_rate::total     0.142123                       # miss rate for overall accesses
system.cpu.dcache.writebacks::total             58222                       # number of writebacks
system.l2.tags.replacements                    240842                       # number of replacements
system.l2.tags.total_refs                       61877                       # Total number of references to valid blocks.
system.l2.tags.avg_refs                      0.252623                       # Average number of references to valid blocks.
system.l2.tags.occ_percent::total            0.999992                       # Average percentage of cache occupancy
system.l2.tags.data_accesses                   892756                       # Number of data accesses
system.l2.overall_hits::total                   28887                       # number of overall hits
system.l2.overall_misses::total                134226                       # number of overall misses
system.l2.overall_miss_rate::total           0.822902                       # miss rate for overall accesses
system.l2.writebacks::total                     55993                       # number of writebacks
---------- End Simulation Statistics   ----------
