
---------- Begin Simulation Statistics ----------
sim_seconds                                  2.458072                       # Number of seconds simulated
sim_ticks                                2458072399500                       # Number of ticks simulated
final_tick                               2458072399500                       # Number of ticks from beginning of simulation (restored from checkpoints and never reset)
sim_freq                                 1000000000000                       # Frequency of simulated ticks
host_inst_rate                                 244469                       # Simulator instruction rate (inst/s)
host_op_rate                                   244469                       # Simulator op (including micro ops) rate (op/s)
host_tick_rate                             5355420543                       # Simulator tick rate (ticks/s)
host_mem_usage                                 750696                       # Number of bytes of host memory used
host_seconds                                   458.99                       # Real time elapsed on the host
sim_insts                                   112208068                       # Number of instructions simulated
sim_ops                                     112208068                       # Number of ops (including micro ops) simulated
system.voltage_domain.voltage                       1                       # Voltage in Volts
system.clk_domain.clock                          1000                       # Clock period in ticks
system.mem_ctrls.pwrStateResidencyTicks::UNDEFINED 2458072399500                       # Cumulative time (in ticks) in various power states
system.mem_ctrls.bytes_read::cpu0.inst         736256                       # Number of bytes read from this memory
system.mem_ctrls.bytes_read::cpu0.data       21436320                       # Number of bytes read from this memory
system.mem_ctrls.bytes_read::cpu1.inst          17760                       # Number of bytes read from this memory
system.mem_ctrls.bytes_read::cpu1.data         339872                       # Number of bytes read from this memory
system.mem_ctrls.bytes_read::cpu2.inst         588384                       # Number of bytes read from this memory
system.mem_ctrls.bytes_read::cpu2.data        3206592                       # Number of bytes read from this memory
system.mem_ctrls.bytes_read::cpu3.inst         273440                       # Number of bytes read from this memory
system.mem_ctrls.bytes_read::cpu3.data        1016480                       # Number of bytes read from this memory
system.mem_ctrls.bytes_read::tsunami.ide         4032                       # Number of bytes read from this memory
system.mem_ctrls.bytes_read::total           27619136                       # Number of bytes read from this memory
system.mem_ctrls.bytes_inst_read::cpu0.inst       736256                       # Number of instructions bytes read from this memory
system.mem_ctrls.bytes_inst_read::cpu1.inst        17760                       # Number of instructions bytes read from this memory
system.mem_ctrls.bytes_inst_read::cpu2.inst       588384                       # Number of instructions bytes read from this memory
system.mem_ctrls.bytes_inst_read::cpu3.inst       273440                       # Number of instructions bytes read from this memory
system.mem_ctrls.bytes_inst_read::total       1615840                       # Number of instructions bytes read from this memory
system.mem_ctrls.bytes_written::writebacks     21034016                       # Number of bytes written to this memory
system.mem_ctrls.bytes_written::total        21034016                       # Number of bytes written to this memory
system.mem_ctrls.num_reads::cpu0.inst           23008                       # Number of read requests responded to by this memory
system.mem_ctrls.num_reads::cpu0.data          669885                       # Number of read requests responded to by this memory
system.mem_ctrls.num_reads::cpu1.inst             555                       # Number of read requests responded to by this memory
system.mem_ctrls.num_reads::cpu1.data           10621                       # Number of read requests responded to by this memory
system.mem_ctrls.num_reads::cpu2.inst           18387                       # Number of read requests responded to by this memory
system.mem_ctrls.num_reads::cpu2.data          100206                       # Number of read requests responded to by this memory
system.mem_ctrls.num_reads::cpu3.inst            8545                       # Number of read requests responded to by this memory
system.mem_ctrls.num_reads::cpu3.data           31765                       # Number of read requests responded to by this memory
system.mem_ctrls.num_reads::tsunami.ide           126                       # Number of read requests responded to by this memory
system.mem_ctrls.num_reads::total              863098                       # Number of read requests responded to by this memory
system.mem_ctrls.num_writes::writebacks        657313                       # Number of write requests responded to by this memory
system.mem_ctrls.num_writes::total             657313                       # Number of write requests responded to by this memory
system.mem_ctrls.bw_read::cpu0.inst            299526                       # Total read bandwidth from this memory (bytes/s)
system.mem_ctrls.bw_read::cpu0.data           8720785                       # Total read bandwidth from this memory (bytes/s)
system.mem_ctrls.bw_read::cpu1.inst              7225                       # Total read bandwidth from this memory (bytes/s)
system.mem_ctrls.bw_read::cpu1.data            138268                       # Total read bandwidth from this memory (bytes/s)
system.mem_ctrls.bw_read::cpu2.inst            239368                       # Total read bandwidth from this memory (bytes/s)
system.mem_ctrls.bw_read::cpu2.data           1304515                       # Total read bandwidth from this memory (bytes/s)
system.mem_ctrls.bw_read::cpu3.inst            111242                       # Total read bandwidth from this memory (bytes/s)
system.mem_ctrls.bw_read::cpu3.data            413527                       # Total read bandwidth from this memory (bytes/s)
system.mem_ctrls.bw_read::tsunami.ide            1640                       # Total read bandwidth from this memory (bytes/s)
system.mem_ctrls.bw_read::total              11236095                       # Total read bandwidth from this memory (bytes/s)
system.mem_ctrls.bw_inst_read::cpu0.inst       299526                       # Instruction read bandwidth from this memory (bytes/s)
system.mem_ctrls.bw_inst_read::cpu1.inst         7225                       # Instruction read bandwidth from this memory (bytes/s)
system.mem_ctrls.bw_inst_read::cpu2.inst       239368                       # Instruction read bandwidth from this memory (bytes/s)
system.mem_ctrls.bw_inst_read::cpu3.inst       111242                       # Instruction read bandwidth from this memory (bytes/s)
system.mem_ctrls.bw_inst_read::total           657361                       # Instruction read bandwidth from this memory (bytes/s)
system.mem_ctrls.bw_write::writebacks         8557118                       # Write bandwidth from this memory (bytes/s)
system.mem_ctrls.bw_write::total              8557118                       # Write bandwidth from this memory (bytes/s)
system.mem_ctrls.bw_total::writebacks         8557118                       # Total bandwidth to/from this memory (bytes/s)
system.mem_ctrls.bw_total::cpu0.inst           299526                       # Total bandwidth to/from this memory (bytes/s)
system.mem_ctrls.bw_total::cpu0.data          8720785                       # Total bandwidth to/from this memory (bytes/s)
system.mem_ctrls.bw_total::cpu1.inst             7225                       # Total bandwidth to/from this memory (bytes/s)
system.mem_ctrls.bw_total::cpu1.data           138268                       # Total bandwidth to/from this memory (bytes/s)
system.mem_ctrls.bw_total::cpu2.inst           239368                       # Total bandwidth to/from this memory (bytes/s)
system.mem_ctrls.bw_total::cpu2.data          1304515                       # Total bandwidth to/from this memory (bytes/s)
system.mem_ctrls.bw_total::cpu3.inst           111242                       # Total bandwidth to/from this memory (bytes/s)
system.mem_ctrls.bw_total::cpu3.data           413527                       # Total bandwidth to/from this memory (bytes/s)
system.mem_ctrls.bw_total::tsunami.ide           1640                       # Total bandwidth to/from this memory (bytes/s)
system.mem_ctrls.bw_total::total             19793214                       # Total bandwidth to/from this memory (bytes/s)
system.mem_ctrls.readReqs                      863098                       # Number of read requests accepted
system.mem_ctrls.writeReqs                     657313                       # Number of write requests accepted
system.mem_ctrls.readBursts                    863098                       # Number of DRAM read bursts, including those serviced by the write queue
system.mem_ctrls.writeBursts                   657313                       # Number of DRAM write bursts, including those merged in the write queue
system.mem_ctrls.bytesReadDRAM               55206720                       # Total number of bytes read from DRAM
system.mem_ctrls.bytesReadWrQ                   31552                       # Total number of bytes read from write queue
system.mem_ctrls.bytesWritten                32669440                       # Total number of bytes written to DRAM
system.mem_ctrls.bytesReadSys                27619136                       # Total read bytes from the system interface side
system.mem_ctrls.bytesWrittenSys             21034016                       # Total written bytes from the system interface side
system.mem_ctrls.servicedByWrQ                    493                       # Number of DRAM read bursts serviced by the write queue
system.mem_ctrls.mergedWrBursts                146834                       # Number of DRAM write bursts merged with an existing one
system.mem_ctrls.neitherReadNorWriteReqs            0                       # Number of requests that are neither read nor write
system.mem_ctrls.perBankRdBursts::0             52816                       # Per bank write bursts
system.mem_ctrls.perBankRdBursts::1             53683                       # Per bank write bursts
system.mem_ctrls.perBankRdBursts::2             54715                       # Per bank write bursts
system.mem_ctrls.perBankRdBursts::3             53027                       # Per bank write bursts
system.mem_ctrls.perBankRdBursts::4             57801                       # Per bank write bursts
system.mem_ctrls.perBankRdBursts::5             57003                       # Per bank write bursts
system.mem_ctrls.perBankRdBursts::6             59186                       # Per bank write bursts
system.mem_ctrls.perBankRdBursts::7             53998                       # Per bank write bursts
system.mem_ctrls.perBankRdBursts::8             52294                       # Per bank write bursts
system.mem_ctrls.perBankRdBursts::9             52456                       # Per bank write bursts
system.mem_ctrls.perBankRdBursts::10            51081                       # Per bank write bursts
system.mem_ctrls.perBankRdBursts::11            51269                       # Per bank write bursts
system.mem_ctrls.perBankRdBursts::12            53342                       # Per bank write bursts
system.mem_ctrls.perBankRdBursts::13            51683                       # Per bank write bursts
system.mem_ctrls.perBankRdBursts::14            52753                       # Per bank write bursts
system.mem_ctrls.perBankRdBursts::15            55498                       # Per bank write bursts
system.mem_ctrls.perBankWrBursts::0             33327                       # Per bank write bursts
system.mem_ctrls.perBankWrBursts::1             33253                       # Per bank write bursts
system.mem_ctrls.perBankWrBursts::2             33488                       # Per bank write bursts
system.mem_ctrls.perBankWrBursts::3             32871                       # Per bank write bursts
system.mem_ctrls.perBankWrBursts::4             33538                       # Per bank write bursts
system.mem_ctrls.perBankWrBursts::5             33147                       # Per bank write bursts
system.mem_ctrls.perBankWrBursts::6             32705                       # Per bank write bursts
system.mem_ctrls.perBankWrBursts::7             32038                       # Per bank write bursts
system.mem_ctrls.perBankWrBursts::8             29473                       # Per bank write bursts
system.mem_ctrls.perBankWrBursts::9             29858                       # Per bank write bursts
system.mem_ctrls.perBankWrBursts::10            29609                       # Per bank write bursts
system.mem_ctrls.perBankWrBursts::11            29308                       # Per bank write bursts
system.mem_ctrls.perBankWrBursts::12            31037                       # Per bank write bursts
system.mem_ctrls.perBankWrBursts::13            30838                       # Per bank write bursts
system.mem_ctrls.perBankWrBursts::14            32585                       # Per bank write bursts
system.mem_ctrls.perBankWrBursts::15            33385                       # Per bank write bursts
system.mem_ctrls.numRdRetry                         0                       # Number of times read queue was full causing retry
system.mem_ctrls.numWrRetry                        52                       # Number of times write queue was full causing retry
system.mem_ctrls.totGap                  2458072238500                       # Total gap between requests
system.mem_ctrls.readPktSize::0                     0                       # Read request sizes (log2)
system.mem_ctrls.readPktSize::1                     0                       # Read request sizes (log2)
system.mem_ctrls.readPktSize::2                     0                       # Read request sizes (log2)
system.mem_ctrls.readPktSize::3                     0                       # Read request sizes (log2)
system.mem_ctrls.readPktSize::4                     0                       # Read request sizes (log2)
system.mem_ctrls.readPktSize::5                863098                       # Read request sizes (log2)
system.mem_ctrls.readPktSize::6                     0                       # Read request sizes (log2)
system.mem_ctrls.writePktSize::0                    0                       # Write request sizes (log2)
system.mem_ctrls.writePktSize::1                    0                       # Write request sizes (log2)
system.mem_ctrls.writePktSize::2                    0                       # Write request sizes (log2)
system.mem_ctrls.writePktSize::3                    0                       # Write request sizes (log2)
system.mem_ctrls.writePktSize::4                    0                       # Write request sizes (log2)
system.mem_ctrls.writePktSize::5               657313                       # Write request sizes (log2)
system.mem_ctrls.writePktSize::6                    0                       # Write request sizes (log2)
system.mem_ctrls.rdQLenPdf::0                  860331                       # What read queue length does an incoming req see
system.mem_ctrls.rdQLenPdf::1                    2022                       # What read queue length does an incoming req see
system.mem_ctrls.rdQLenPdf::2                     123                       # What read queue length does an incoming req see
system.mem_ctrls.rdQLenPdf::3                       7                       # What read queue length does an incoming req see
system.mem_ctrls.rdQLenPdf::4                       6                       # What read queue length does an incoming req see
system.mem_ctrls.rdQLenPdf::5                       9                       # What read queue length does an incoming req see
system.mem_ctrls.rdQLenPdf::6                      10                       # What read queue length does an incoming req see
system.mem_ctrls.rdQLenPdf::7                      14                       # What read queue length does an incoming req see
system.mem_ctrls.rdQLenPdf::8                      17                       # What read queue length does an incoming req see
system.mem_ctrls.rdQLenPdf::9                      26                       # What read queue length does an incoming req see
system.mem_ctrls.rdQLenPdf::10                      6                       # What read queue length does an incoming req see
system.mem_ctrls.rdQLenPdf::11                      5                       # What read queue length does an incoming req see
system.mem_ctrls.rdQLenPdf::12                      4                       # What read queue length does an incoming req see
system.mem_ctrls.rdQLenPdf::13                      4                       # What read queue length does an incoming req see
system.mem_ctrls.rdQLenPdf::14                      3                       # What read queue length does an incoming req see
system.mem_ctrls.rdQLenPdf::15                      3                       # What read queue length does an incoming req see
system.mem_ctrls.rdQLenPdf::16                      3                       # What read queue length does an incoming req see
system.mem_ctrls.rdQLenPdf::17                      6                       # What read queue length does an incoming req see
system.mem_ctrls.rdQLenPdf::18                      4                       # What read queue length does an incoming req see
system.mem_ctrls.rdQLenPdf::19                      1                       # What read queue length does an incoming req see
system.mem_ctrls.rdQLenPdf::20                      1                       # What read queue length does an incoming req see
system.mem_ctrls.rdQLenPdf::21                      0                       # What read queue length does an incoming req see
system.mem_ctrls.rdQLenPdf::22                      0                       # What read queue length does an incoming req see
system.mem_ctrls.rdQLenPdf::23                      0                       # What read queue length does an incoming req see
system.mem_ctrls.rdQLenPdf::24                      0                       # What read queue length does an incoming req see
system.mem_ctrls.rdQLenPdf::25                      0                       # What read queue length does an incoming req see
system.mem_ctrls.rdQLenPdf::26                      0                       # What read queue length does an incoming req see
system.mem_ctrls.rdQLenPdf::27                      0                       # What read queue length does an incoming req see
system.mem_ctrls.rdQLenPdf::28                      0                       # What read queue length does an incoming req see
system.mem_ctrls.rdQLenPdf::29                      0                       # What read queue length does an incoming req see
system.mem_ctrls.rdQLenPdf::30                      0                       # What read queue length does an incoming req see
system.mem_ctrls.rdQLenPdf::31                      0                       # What read queue length does an incoming req see
system.mem_ctrls.wrQLenPdf::0                       1                       # What write queue length does an incoming req see
system.mem_ctrls.wrQLenPdf::1                       1                       # What write queue length does an incoming req see
system.mem_ctrls.wrQLenPdf::2                       1                       # What write queue length does an incoming req see
system.mem_ctrls.wrQLenPdf::3                       1                       # What write queue length does an incoming req see
system.mem_ctrls.wrQLenPdf::4                       1                       # What write queue length does an incoming req see
system.mem_ctrls.wrQLenPdf::5                       1                       # What write queue length does an incoming req see
system.mem_ctrls.wrQLenPdf::6                       1                       # What write queue length does an incoming req see
system.mem_ctrls.wrQLenPdf::7                       1                       # What write queue length does an incoming req see
system.mem_ctrls.wrQLenPdf::8                       1                       # What write queue length does an incoming req see
system.mem_ctrls.wrQLenPdf::9                       1                       # What write queue length does an incoming req see
system.mem_ctrls.wrQLenPdf::10                      1                       # What write queue length does an incoming req see
system.mem_ctrls.wrQLenPdf::11                      1                       # What write queue length does an incoming req see
system.mem_ctrls.wrQLenPdf::12                      1                       # What write queue length does an incoming req see
system.mem_ctrls.wrQLenPdf::13                      1                       # What write queue length does an incoming req see
system.mem_ctrls.wrQLenPdf::14                      1                       # What write queue length does an incoming req see
system.mem_ctrls.wrQLenPdf::15                   6678                       # What write queue length does an incoming req see
system.mem_ctrls.wrQLenPdf::16                   7886                       # What write queue length does an incoming req see
system.mem_ctrls.wrQLenPdf::17                  30499                       # What write queue length does an incoming req see
system.mem_ctrls.wrQLenPdf::18                  30348                       # What write queue length does an incoming req see
system.mem_ctrls.wrQLenPdf::19                  30145                       # What write queue length does an incoming req see
system.mem_ctrls.wrQLenPdf::20                  30505                       # What write queue length does an incoming req see
system.mem_ctrls.wrQLenPdf::21                  30565                       # What write queue length does an incoming req see
system.mem_ctrls.wrQLenPdf::22                  30760                       # What write queue length does an incoming req see
system.mem_ctrls.wrQLenPdf::23                  31971                       # What write queue length does an incoming req see
system.mem_ctrls.wrQLenPdf::24                  30949                       # What write queue length does an incoming req see
system.mem_ctrls.wrQLenPdf::25                  31030                       # What write queue length does an incoming req see
system.mem_ctrls.wrQLenPdf::26                  31862                       # What write queue length does an incoming req see
system.mem_ctrls.wrQLenPdf::27                  30688                       # What write queue length does an incoming req see
system.mem_ctrls.wrQLenPdf::28                  30718                       # What write queue length does an incoming req see
system.mem_ctrls.wrQLenPdf::29                  30546                       # What write queue length does an incoming req see
system.mem_ctrls.wrQLenPdf::30                  30414                       # What write queue length does an incoming req see
system.mem_ctrls.wrQLenPdf::31                  29942                       # What write queue length does an incoming req see
system.mem_ctrls.wrQLenPdf::32                  29817                       # What write queue length does an incoming req see
system.mem_ctrls.wrQLenPdf::33                    301                       # What write queue length does an incoming req see
system.mem_ctrls.wrQLenPdf::34                    357                       # What write queue length does an incoming req see
system.mem_ctrls.wrQLenPdf::35                    255                       # What write queue length does an incoming req see
system.mem_ctrls.wrQLenPdf::36                    290                       # What write queue length does an incoming req see
system.mem_ctrls.wrQLenPdf::37                    267                       # What write queue length does an incoming req see
system.mem_ctrls.wrQLenPdf::38                    265                       # What write queue length does an incoming req see
system.mem_ctrls.wrQLenPdf::39                    264                       # What write queue length does an incoming req see
system.mem_ctrls.wrQLenPdf::40                    247                       # What write queue length does an incoming req see
system.mem_ctrls.wrQLenPdf::41                    243                       # What write queue length does an incoming req see
system.mem_ctrls.wrQLenPdf::42                    236                       # What write queue length does an incoming req see
system.mem_ctrls.wrQLenPdf::43                    221                       # What write queue length does an incoming req see
system.mem_ctrls.wrQLenPdf::44                    175                       # What write queue length does an incoming req see
system.mem_ctrls.wrQLenPdf::45                    162                       # What write queue length does an incoming req see
system.mem_ctrls.wrQLenPdf::46                    128                       # What write queue length does an incoming req see
system.mem_ctrls.wrQLenPdf::47                    141                       # What write queue length does an incoming req see
system.mem_ctrls.wrQLenPdf::48                    123                       # What write queue length does an incoming req see
system.mem_ctrls.wrQLenPdf::49                     96                       # What write queue length does an incoming req see
system.mem_ctrls.wrQLenPdf::50                    101                       # What write queue length does an incoming req see
system.mem_ctrls.wrQLenPdf::51                    109                       # What write queue length does an incoming req see
system.mem_ctrls.wrQLenPdf::52                    102                       # What write queue length does an incoming req see
system.mem_ctrls.wrQLenPdf::53                     95                       # What write queue length does an incoming req see
system.mem_ctrls.wrQLenPdf::54                     85                       # What write queue length does an incoming req see
system.mem_ctrls.wrQLenPdf::55                     84                       # What write queue length does an incoming req see
system.mem_ctrls.wrQLenPdf::56                     76                       # What write queue length does an incoming req see
system.mem_ctrls.wrQLenPdf::57                     73                       # What write queue length does an incoming req see
system.mem_ctrls.wrQLenPdf::58                     94                       # What write queue length does an incoming req see
system.mem_ctrls.wrQLenPdf::59                    155                       # What write queue length does an incoming req see
system.mem_ctrls.wrQLenPdf::60                    175                       # What write queue length does an incoming req see
system.mem_ctrls.wrQLenPdf::61                     99                       # What write queue length does an incoming req see
system.mem_ctrls.wrQLenPdf::62                     66                       # What write queue length does an incoming req see
system.mem_ctrls.wrQLenPdf::63                     56                       # What write queue length does an incoming req see
system.mem_ctrls.bytesPerActivate::samples       251969                       # Bytes accessed per row activation
system.mem_ctrls.bytesPerActivate::mean    348.757061                       # Bytes accessed per row activation
system.mem_ctrls.bytesPerActivate::gmean   191.151209                       # Bytes accessed per row activation
system.mem_ctrls.bytesPerActivate::stdev   371.664876                       # Bytes accessed per row activation
system.mem_ctrls.bytesPerActivate::0-127        99007     39.29%     39.29% # Bytes accessed per row activation
system.mem_ctrls.bytesPerActivate::128-255        54021     21.44%     60.73% # Bytes accessed per row activation
system.mem_ctrls.bytesPerActivate::256-383        17699      7.02%     67.76% # Bytes accessed per row activation
system.mem_ctrls.bytesPerActivate::384-511        11233      4.46%     72.22% # Bytes accessed per row activation
system.mem_ctrls.bytesPerActivate::512-639         7328      2.91%     75.12% # Bytes accessed per row activation
system.mem_ctrls.bytesPerActivate::640-767         7036      2.79%     77.92% # Bytes accessed per row activation
system.mem_ctrls.bytesPerActivate::768-895         5666      2.25%     80.16% # Bytes accessed per row activation
system.mem_ctrls.bytesPerActivate::896-1023         5080      2.02%     82.18% # Bytes accessed per row activation
system.mem_ctrls.bytesPerActivate::1024-1151        44899     17.82%    100.00% # Bytes accessed per row activation
system.mem_ctrls.bytesPerActivate::total       251969                       # Bytes accessed per row activation
system.mem_ctrls.rdPerTurnAround::samples        29639                       # Reads before turning the bus around for writes
system.mem_ctrls.rdPerTurnAround::mean      29.103411                       # Reads before turning the bus around for writes
system.mem_ctrls.rdPerTurnAround::stdev    473.342532                       # Reads before turning the bus around for writes
system.mem_ctrls.rdPerTurnAround::0-2047        29635     99.99%     99.99% # Reads before turning the bus around for writes
system.mem_ctrls.rdPerTurnAround::8192-10239            1      0.00%     99.99% # Reads before turning the bus around for writes
system.mem_ctrls.rdPerTurnAround::20480-22527            1      0.00%     99.99% # Reads before turning the bus around for writes
system.mem_ctrls.rdPerTurnAround::53248-55295            1      0.00%    100.00% # Reads before turning the bus around for writes
system.mem_ctrls.rdPerTurnAround::55296-57343            1      0.00%    100.00% # Reads before turning the bus around for writes
system.mem_ctrls.rdPerTurnAround::total         29639                       # Reads before turning the bus around for writes
system.mem_ctrls.wrPerTurnAround::samples        29639                       # Writes before turning the bus around for reads
system.mem_ctrls.wrPerTurnAround::mean      17.222578                       # Writes before turning the bus around for reads
system.mem_ctrls.wrPerTurnAround::gmean     16.888249                       # Writes before turning the bus around for reads
system.mem_ctrls.wrPerTurnAround::stdev      5.095196                       # Writes before turning the bus around for reads
system.mem_ctrls.wrPerTurnAround::16-19         28435     95.94%     95.94% # Writes before turning the bus around for reads
system.mem_ctrls.wrPerTurnAround::20-23            61      0.21%     96.14% # Writes before turning the bus around for reads
system.mem_ctrls.wrPerTurnAround::24-27           402      1.36%     97.50% # Writes before turning the bus around for reads
system.mem_ctrls.wrPerTurnAround::28-31            63      0.21%     97.71% # Writes before turning the bus around for reads
system.mem_ctrls.wrPerTurnAround::32-35           235      0.79%     98.51% # Writes before turning the bus around for reads
system.mem_ctrls.wrPerTurnAround::36-39            82      0.28%     98.78% # Writes before turning the bus around for reads
system.mem_ctrls.wrPerTurnAround::40-43           197      0.66%     99.45% # Writes before turning the bus around for reads
system.mem_ctrls.wrPerTurnAround::44-47            40      0.13%     99.58% # Writes before turning the bus around for reads
system.mem_ctrls.wrPerTurnAround::48-51            13      0.04%     99.63% # Writes before turning the bus around for reads
system.mem_ctrls.wrPerTurnAround::52-55            12      0.04%     99.67% # Writes before turning the bus around for reads
system.mem_ctrls.wrPerTurnAround::56-59             5      0.02%     99.68% # Writes before turning the bus around for reads
system.mem_ctrls.wrPerTurnAround::60-63             2      0.01%     99.69% # Writes before turning the bus around for reads
system.mem_ctrls.wrPerTurnAround::64-67            11      0.04%     99.73% # Writes before turning the bus around for reads
system.mem_ctrls.wrPerTurnAround::68-71            19      0.06%     99.79% # Writes before turning the bus around for reads
system.mem_ctrls.wrPerTurnAround::72-75             6      0.02%     99.81% # Writes before turning the bus around for reads
system.mem_ctrls.wrPerTurnAround::76-79            12      0.04%     99.85% # Writes before turning the bus around for reads
system.mem_ctrls.wrPerTurnAround::80-83             9      0.03%     99.88% # Writes before turning the bus around for reads
system.mem_ctrls.wrPerTurnAround::84-87             2      0.01%     99.89% # Writes before turning the bus around for reads
system.mem_ctrls.wrPerTurnAround::88-91            10      0.03%     99.92% # Writes before turning the bus around for reads
system.mem_ctrls.wrPerTurnAround::92-95             6      0.02%     99.94% # Writes before turning the bus around for reads
system.mem_ctrls.wrPerTurnAround::96-99             6      0.02%     99.96% # Writes before turning the bus around for reads
system.mem_ctrls.wrPerTurnAround::100-103            5      0.02%     99.98% # Writes before turning the bus around for reads
system.mem_ctrls.wrPerTurnAround::104-107            1      0.00%     99.98% # Writes before turning the bus around for reads
system.mem_ctrls.wrPerTurnAround::108-111            2      0.01%     99.99% # Writes before turning the bus around for reads
system.mem_ctrls.wrPerTurnAround::120-123            1      0.00%     99.99% # Writes before turning the bus around for reads
system.mem_ctrls.wrPerTurnAround::128-131            1      0.00%    100.00% # Writes before turning the bus around for reads
system.mem_ctrls.wrPerTurnAround::140-143            1      0.00%    100.00% # Writes before turning the bus around for reads
system.mem_ctrls.wrPerTurnAround::total         29639                       # Writes before turning the bus around for reads
system.mem_ctrls.totQLat                  14682273975                       # Total ticks spent queuing
system.mem_ctrls.totMemAccLat             30856117725                       # Total ticks spent from burst creation until serviced by the DRAM
system.mem_ctrls.totBusLat                 4313025000                       # Total ticks spent in databus transfers
system.mem_ctrls.avgQLat                     17020.85                       # Average queueing delay per DRAM burst
system.mem_ctrls.avgBusLat                    5000.00                       # Average bus latency per DRAM burst
system.mem_ctrls.avgMemAccLat                35770.85                       # Average memory access latency per DRAM burst
system.mem_ctrls.avgRdBW                        22.46                       # Average DRAM read bandwidth in MiByte/s
system.mem_ctrls.avgWrBW                        13.29                       # Average achieved write bandwidth in MiByte/s
system.mem_ctrls.avgRdBWSys                     11.24                       # Average system read bandwidth in MiByte/s
system.mem_ctrls.avgWrBWSys                      8.56                       # Average system write bandwidth in MiByte/s
system.mem_ctrls.peakBW                      12800.00                       # Theoretical peak bandwidth in MiByte/s
system.mem_ctrls.busUtil                         0.28                       # Data bus utilization in percentage
system.mem_ctrls.busUtilRead                     0.18                       # Data bus utilization in percentage for reads
system.mem_ctrls.busUtilWrite                    0.10                       # Data bus utilization in percentage for writes
system.mem_ctrls.avgRdQLen                       1.03                       # Average read queue length when enqueuing
system.mem_ctrls.avgWrQLen                      24.44                       # Average write queue length when enqueuing
system.mem_ctrls.readRowHits                   755899                       # Number of row buffer hits during reads
system.mem_ctrls.writeRowHits                  365195                       # Number of row buffer hits during writes
system.mem_ctrls.readRowHitRate                 87.63                       # Row buffer hit rate for reads
system.mem_ctrls.writeRowHitRate                71.54                       # Row buffer hit rate for writes
system.mem_ctrls.avgGap                    1616715.64                       # Average gap between requests
system.mem_ctrls.pageHitRate                    81.65                       # Row buffer hit rate, read and write combined
system.mem_ctrls_0.actEnergy                936725160                       # Energy for activate commands per rank (pJ)
system.mem_ctrls_0.preEnergy                497873640                       # Energy for precharge commands per rank (pJ)
system.mem_ctrls_0.readEnergy              3157515060                       # Energy for read commands per rank (pJ)
system.mem_ctrls_0.writeEnergy             1379995740                       # Energy for write commands per rank (pJ)
system.mem_ctrls_0.refreshEnergy         14637651600.000002                       # Energy for refresh commands per rank (pJ)
system.mem_ctrls_0.actBackEnergy          17762374200                       # Energy for active background per rank (pJ)
system.mem_ctrls_0.preBackEnergy            754748640                       # Energy for precharge background per rank (pJ)
system.mem_ctrls_0.actPowerDownEnergy     34329359220                       # Energy for active power-down per rank (pJ)
system.mem_ctrls_0.prePowerDownEnergy     16370884320                       # Energy for precharge power-down per rank (pJ)
system.mem_ctrls_0.selfRefreshEnergy     553842769920                       # Energy for self refresh per rank (pJ)
system.mem_ctrls_0.totalEnergy           643673950050                       # Total energy per rank (pJ)
system.mem_ctrls_0.averagePower            261.861266                       # Core power per rank (mW)
system.mem_ctrls_0.totalIdleTime         2417144569749                       # Total Idle time Per DRAM Rank
system.mem_ctrls_0.memoryStateTime::IDLE   1205668500                       # Time in different power states
system.mem_ctrls_0.memoryStateTime::REF    6215168000                       # Time in different power states
system.mem_ctrls_0.memoryStateTime::SREF 2299229094250                       # Time in different power states
system.mem_ctrls_0.memoryStateTime::PRE_PDN  42632423750                       # Time in different power states
system.mem_ctrls_0.memoryStateTime::ACT   33506868501                       # Time in different power states
system.mem_ctrls_0.memoryStateTime::ACT_PDN  75283176499                       # Time in different power states
system.mem_ctrls_1.actEnergy                862347780                       # Energy for activate commands per rank (pJ)
system.mem_ctrls_1.preEnergy                458348715                       # Energy for precharge commands per rank (pJ)
system.mem_ctrls_1.readEnergy              3001484640                       # Energy for read commands per rank (pJ)
system.mem_ctrls_1.writeEnergy             1284605460                       # Energy for write commands per rank (pJ)
system.mem_ctrls_1.refreshEnergy         14418839760.000002                       # Energy for refresh commands per rank (pJ)
system.mem_ctrls_1.actBackEnergy          18037003620                       # Energy for active background per rank (pJ)
system.mem_ctrls_1.preBackEnergy            766716960                       # Energy for precharge background per rank (pJ)
system.mem_ctrls_1.actPowerDownEnergy     32288791710                       # Energy for active power-down per rank (pJ)
system.mem_ctrls_1.prePowerDownEnergy     16537579680                       # Energy for precharge power-down per rank (pJ)
system.mem_ctrls_1.selfRefreshEnergy     554708591100                       # Energy for self refresh per rank (pJ)
system.mem_ctrls_1.totalEnergy           642367688505                       # Total energy per rank (pJ)
system.mem_ctrls_1.averagePower            261.329849                       # Core power per rank (mW)
system.mem_ctrls_1.totalIdleTime         2416512414250                       # Total Idle time Per DRAM Rank
system.mem_ctrls_1.memoryStateTime::IDLE   1269886000                       # Time in different power states
system.mem_ctrls_1.memoryStateTime::REF    6123058000                       # Time in different power states
system.mem_ctrls_1.memoryStateTime::SREF 2302638042000                       # Time in different power states
system.mem_ctrls_1.memoryStateTime::PRE_PDN  43066680250                       # Time in different power states
system.mem_ctrls_1.memoryStateTime::ACT   34165913500                       # Time in different power states
system.mem_ctrls_1.memoryStateTime::ACT_PDN  70808819750                       # Time in different power states
system.pwrStateResidencyTicks::UNDEFINED 2458072399500                       # Cumulative time (in ticks) in various power states
system.bridge.pwrStateResidencyTicks::UNDEFINED 2458072399500                       # Cumulative time (in ticks) in various power states
system.cpu_voltage_domain.voltage                   1                       # Voltage in Volts
system.cpu_clk_domain.clock                       500                       # Clock period in ticks
system.cpu0.dtb.fetch_hits                          0                       # ITB hits
system.cpu0.dtb.fetch_misses                        0                       # ITB misses
system.cpu0.dtb.fetch_acv                           0                       # ITB acv
system.cpu0.dtb.fetch_accesses                      0                       # ITB accesses
system.cpu0.dtb.read_hits                    11526073                       # DTB read hits
system.cpu0.dtb.read_misses                      2643                       # DTB read misses
system.cpu0.dtb.read_acv                            0                       # DTB read access violations
system.cpu0.dtb.read_accesses                  208897                       # DTB read accesses
system.cpu0.dtb.write_hits                    5636465                       # DTB write hits
system.cpu0.dtb.write_misses                      389                       # DTB write misses
system.cpu0.dtb.write_acv                          34                       # DTB write access violations
system.cpu0.dtb.write_accesses                  91736                       # DTB write accesses
system.cpu0.dtb.data_hits                    17162538                       # DTB hits
system.cpu0.dtb.data_misses                      3032                       # DTB misses
system.cpu0.dtb.data_acv                           34                       # DTB access violations
system.cpu0.dtb.data_accesses                  300633                       # DTB accesses
system.cpu0.itb.fetch_hits                    2358412                       # ITB hits
system.cpu0.itb.fetch_misses                     1106                       # ITB misses
system.cpu0.itb.fetch_acv                           0                       # ITB acv
system.cpu0.itb.fetch_accesses                2359518                       # ITB accesses
system.cpu0.itb.read_hits                           0                       # DTB read hits
system.cpu0.itb.read_misses                         0                       # DTB read misses
system.cpu0.itb.read_acv                            0                       # DTB read access violations
system.cpu0.itb.read_accesses                       0                       # DTB read accesses
system.cpu0.itb.write_hits                          0                       # DTB write hits
system.cpu0.itb.write_misses                        0                       # DTB write misses
system.cpu0.itb.write_acv                           0                       # DTB write access violations
system.cpu0.itb.write_accesses                      0                       # DTB write accesses
system.cpu0.itb.data_hits                           0                       # DTB hits
system.cpu0.itb.data_misses                         0                       # DTB misses
system.cpu0.itb.data_acv                            0                       # DTB access violations
system.cpu0.itb.data_accesses                       0                       # DTB accesses
system.cpu0.numPwrStateTransitions              14132                       # Number of power state transitions
system.cpu0.pwrStateClkGateDist::samples         7066                       # Distribution of time spent in the clock gated state
system.cpu0.pwrStateClkGateDist::mean    320964685.041042                       # Distribution of time spent in the clock gated state
system.cpu0.pwrStateClkGateDist::stdev   450049916.780126                       # Distribution of time spent in the clock gated state
system.cpu0.pwrStateClkGateDist::1000-5e+10         7066    100.00%    100.00% # Distribution of time spent in the clock gated state
system.cpu0.pwrStateClkGateDist::min_value       264000                       # Distribution of time spent in the clock gated state
system.cpu0.pwrStateClkGateDist::max_value   2000000000                       # Distribution of time spent in the clock gated state
system.cpu0.pwrStateClkGateDist::total           7066                       # Distribution of time spent in the clock gated state
system.cpu0.pwrStateResidencyTicks::ON   190135935000                       # Cumulative time (in ticks) in various power states
system.cpu0.pwrStateResidencyTicks::CLK_GATED 2267936464500                       # Cumulative time (in ticks) in various power states
system.cpu0.numCycles                      4916144799                       # number of cpu cycles simulated
system.cpu0.numWorkItemsStarted                     0                       # number of work items this cpu started
system.cpu0.numWorkItemsCompleted                   0                       # number of work items this cpu completed
system.cpu0.kern.inst.arm                           0                       # number of arm instructions executed
system.cpu0.kern.inst.quiesce                    7066                       # number of quiesce instructions executed
system.cpu0.kern.callpal::cserve                    1      0.00%      0.00% # number of callpals executed
system.cpu0.kern.callpal::wripir                 1037      0.82%      0.82% # number of callpals executed
system.cpu0.kern.callpal::wrmces                    1      0.00%      0.82% # number of callpals executed
system.cpu0.kern.callpal::wrfen                     1      0.00%      0.82% # number of callpals executed
system.cpu0.kern.callpal::wrvptptr                  1      0.00%      0.82% # number of callpals executed
system.cpu0.kern.callpal::swpctx                 2016      1.60%      2.42% # number of callpals executed
system.cpu0.kern.callpal::tbi                       9      0.01%      2.43% # number of callpals executed
system.cpu0.kern.callpal::wrent                     7      0.01%      2.43% # number of callpals executed
system.cpu0.kern.callpal::swpipl               113949     90.25%     92.68% # number of callpals executed
system.cpu0.kern.callpal::rdps                   5227      4.14%     96.82% # number of callpals executed
system.cpu0.kern.callpal::wrkgp                     1      0.00%     96.82% # number of callpals executed
system.cpu0.kern.callpal::wrusp                     4      0.00%     96.82% # number of callpals executed
system.cpu0.kern.callpal::rdusp                     4      0.00%     96.83% # number of callpals executed
system.cpu0.kern.callpal::whami                     2      0.00%     96.83% # number of callpals executed
system.cpu0.kern.callpal::rti                    3830      3.03%     99.86% # number of callpals executed
system.cpu0.kern.callpal::callsys                 131      0.10%     99.97% # number of callpals executed
system.cpu0.kern.callpal::imb                      44      0.03%    100.00% # number of callpals executed
system.cpu0.kern.callpal::total                126265                       # number of callpals executed
system.cpu0.kern.inst.hwrei                    133682                       # number of hwrei instructions executed
system.cpu0.kern.mode_switch::kernel             5741                       # number of protection mode switches
system.cpu0.kern.mode_switch::user                471                       # number of protection mode switches
system.cpu0.kern.mode_switch::idle                  0                       # number of protection mode switches
system.cpu0.kern.mode_good::kernel                470                      
system.cpu0.kern.mode_good::user                  471                      
system.cpu0.kern.mode_good::idle                    0                      
system.cpu0.kern.mode_switch_good::kernel     0.081867                       # fraction of useful protection mode switches
system.cpu0.kern.mode_switch_good::user             1                       # fraction of useful protection mode switches
system.cpu0.kern.mode_switch_good::idle           nan                       # fraction of useful protection mode switches
system.cpu0.kern.mode_switch_good::total     0.151481                       # fraction of useful protection mode switches
system.cpu0.kern.mode_ticks::kernel      2455527982500     99.90%     99.90% # number of ticks spent at the given mode
system.cpu0.kern.mode_ticks::user          2543205000      0.10%    100.00% # number of ticks spent at the given mode
system.cpu0.kern.mode_ticks::idle                   0      0.00%    100.00% # number of ticks spent at the given mode
system.cpu0.kern.swap_context                    2017                       # number of times the context was actually changed
system.cpu0.kern.ipl_count::0                   46243     38.21%     38.21% # number of times we switched to this ipl
system.cpu0.kern.ipl_count::21                     11      0.01%     38.22% # number of times we switched to this ipl
system.cpu0.kern.ipl_count::22                   2477      2.05%     40.27% # number of times we switched to this ipl
system.cpu0.kern.ipl_count::30                    756      0.62%     40.89% # number of times we switched to this ipl
system.cpu0.kern.ipl_count::31                  71536     59.11%    100.00% # number of times we switched to this ipl
system.cpu0.kern.ipl_count::total              121023                       # number of times we switched to this ipl
system.cpu0.kern.ipl_good::0                    46115     48.69%     48.69% # number of times we switched to this ipl from a different ipl
system.cpu0.kern.ipl_good::21                      11      0.01%     48.70% # number of times we switched to this ipl from a different ipl
system.cpu0.kern.ipl_good::22                    2477      2.62%     51.31% # number of times we switched to this ipl from a different ipl
system.cpu0.kern.ipl_good::30                     756      0.80%     52.11% # number of times we switched to this ipl from a different ipl
system.cpu0.kern.ipl_good::31                   45361     47.89%    100.00% # number of times we switched to this ipl from a different ipl
system.cpu0.kern.ipl_good::total                94720                       # number of times we switched to this ipl from a different ipl
system.cpu0.kern.ipl_ticks::0            2384450530000     97.00%     97.00% # number of cycles we spent at this ipl
system.cpu0.kern.ipl_ticks::21                9480500      0.00%     97.01% # number of cycles we spent at this ipl
system.cpu0.kern.ipl_ticks::22             1317218500      0.05%     97.06% # number of cycles we spent at this ipl
system.cpu0.kern.ipl_ticks::30              815650500      0.03%     97.09% # number of cycles we spent at this ipl
system.cpu0.kern.ipl_ticks::31            71478310000      2.91%    100.00% # number of cycles we spent at this ipl
system.cpu0.kern.ipl_ticks::total        2458071189500                       # number of cycles we spent at this ipl
system.cpu0.kern.ipl_used::0                 0.997232                       # fraction of swpipl calls that actually changed the ipl
system.cpu0.kern.ipl_used::21                       1                       # fraction of swpipl calls that actually changed the ipl
system.cpu0.kern.ipl_used::22                       1                       # fraction of swpipl calls that actually changed the ipl
system.cpu0.kern.ipl_used::30                       1                       # fraction of swpipl calls that actually changed the ipl
system.cpu0.kern.ipl_used::31                0.634100                       # fraction of swpipl calls that actually changed the ipl
system.cpu0.kern.ipl_used::total             0.782661                       # fraction of swpipl calls that actually changed the ipl
system.cpu0.committedInsts                   67828763                       # Number of instructions committed
system.cpu0.committedOps                     67828763                       # Number of ops (including micro ops) committed
system.cpu0.num_int_alu_accesses             65535576                       # Number of integer alu accesses
system.cpu0.num_fp_alu_accesses                226624                       # Number of float alu accesses
system.cpu0.num_vec_alu_accesses                    0                       # Number of vector alu accesses
system.cpu0.num_func_calls                    2209336                       # number of times a function call or return occured
system.cpu0.num_conditional_control_insts      9041511                       # number of instructions that are conditional controls
system.cpu0.num_int_insts                    65535576                       # number of integer instructions
system.cpu0.num_fp_insts                       226624                       # number of float instructions
system.cpu0.num_vec_insts                           0                       # number of vector instructions
system.cpu0.num_int_register_reads           89015195                       # number of times the integer registers were read
system.cpu0.num_int_register_writes          49935616                       # number of times the integer registers were written
system.cpu0.num_fp_register_reads               76210                       # number of times the floating registers were read
system.cpu0.num_fp_register_writes              77650                       # number of times the floating registers were written
system.cpu0.num_vec_register_reads                  0                       # number of times the vector registers were read
system.cpu0.num_vec_register_writes                 0                       # number of times the vector registers were written
system.cpu0.num_mem_refs                     17187259                       # number of memory refs
system.cpu0.num_load_insts                   11540052                       # Number of load instructions
system.cpu0.num_store_insts                   5647207                       # Number of store instructions
system.cpu0.num_idle_cycles              4535872928.998155                       # Number of idle cycles
system.cpu0.num_busy_cycles              380271870.001845                       # Number of busy cycles
system.cpu0.not_idle_fraction                0.077352                       # Percentage of non-idle cycles
system.cpu0.idle_fraction                    0.922648                       # Percentage of idle cycles
system.cpu0.Branches                         11660128                       # Number of branches fetched
system.cpu0.op_class::No_OpClass              1395872      2.06%      2.06% # Class of executed instruction
system.cpu0.op_class::IntAlu                 48093639     70.90%     72.96% # Class of executed instruction
system.cpu0.op_class::IntMult                  151042      0.22%     73.18% # Class of executed instruction
system.cpu0.op_class::IntDiv                        0      0.00%     73.18% # Class of executed instruction
system.cpu0.op_class::FloatAdd                  93636      0.14%     73.32% # Class of executed instruction
system.cpu0.op_class::FloatCmp                      0      0.00%     73.32% # Class of executed instruction
system.cpu0.op_class::FloatCvt                      0      0.00%     73.32% # Class of executed instruction
system.cpu0.op_class::FloatMult                     0      0.00%     73.32% # Class of executed instruction
system.cpu0.op_class::FloatMultAcc                  0      0.00%     73.32% # Class of executed instruction
system.cpu0.op_class::FloatDiv                   1738      0.00%     73.32% # Class of executed instruction
system.cpu0.op_class::FloatMisc                     0      0.00%     73.32% # Class of executed instruction
system.cpu0.op_class::FloatSqrt                     0      0.00%     73.32% # Class of executed instruction
system.cpu0.op_class::SimdAdd                       0      0.00%     73.32% # Class of executed instruction
system.cpu0.op_class::SimdAddAcc                    0      0.00%     73.32% # Class of executed instruction
system.cpu0.op_class::SimdAlu                       0      0.00%     73.32% # Class of executed instruction
system.cpu0.op_class::SimdCmp                       0      0.00%     73.32% # Class of executed instruction
system.cpu0.op_class::SimdCvt                       0      0.00%     73.32% # Class of executed instruction
system.cpu0.op_class::SimdMisc                      0      0.00%     73.32% # Class of executed instruction
system.cpu0.op_class::SimdMult                      0      0.00%     73.32% # Class of executed instruction
system.cpu0.op_class::SimdMultAcc                   0      0.00%     73.32% # Class of executed instruction
system.cpu0.op_class::SimdShift                     0      0.00%     73.32% # Class of executed instruction
system.cpu0.op_class::SimdShiftAcc                  0      0.00%     73.32% # Class of executed instruction
system.cpu0.op_class::SimdSqrt                      0      0.00%     73.32% # Class of executed instruction
system.cpu0.op_class::SimdFloatAdd                  0      0.00%     73.32% # Class of executed instruction
system.cpu0.op_class::SimdFloatAlu                  0      0.00%     73.32% # Class of executed instruction
system.cpu0.op_class::SimdFloatCmp                  0      0.00%     73.32% # Class of executed instruction
system.cpu0.op_class::SimdFloatCvt                  0      0.00%     73.32% # Class of executed instruction
system.cpu0.op_class::SimdFloatDiv                  0      0.00%     73.32% # Class of executed instruction
system.cpu0.op_class::SimdFloatMisc                 0      0.00%     73.32% # Class of executed instruction
system.cpu0.op_class::SimdFloatMult                 0      0.00%     73.32% # Class of executed instruction
system.cpu0.op_class::SimdFloatMultAcc              0      0.00%     73.32% # Class of executed instruction
system.cpu0.op_class::SimdFloatSqrt                 0      0.00%     73.32% # Class of executed instruction
system.cpu0.op_class::MemRead                11790162     17.38%     90.70% # Class of executed instruction
system.cpu0.op_class::MemWrite                5600208      8.26%     98.96% # Class of executed instruction
system.cpu0.op_class::FloatMemRead              67216      0.10%     99.06% # Class of executed instruction
system.cpu0.op_class::FloatMemWrite             64034      0.09%     99.15% # Class of executed instruction
system.cpu0.op_class::IprAccess                574282      0.85%    100.00% # Class of executed instruction
system.cpu0.op_class::InstPrefetch                  0      0.00%    100.00% # Class of executed instruction
system.cpu0.op_class::total                  67831829                       # Class of executed instruction
system.cpu0.dcache.tags.pwrStateResidencyTicks::UNDEFINED 2458072399500                       # Cumulative time (in ticks) in various power states
system.cpu0.dcache.tags.replacements          2299797                       # number of replacements
system.cpu0.dcache.tags.tagsinuse         1015.694696                       # Cycle average of tags in use
system.cpu0.dcache.tags.total_refs           14804336                       # Total number of references to valid blocks.
system.cpu0.dcache.tags.sampled_refs          2299797                       # Sample count of references to valid blocks.
system.cpu0.dcache.tags.avg_refs             6.437236                       # Average number of references to valid blocks.
system.cpu0.dcache.tags.warmup_cycle        168203500                       # Cycle when the warmup percentage was hit.
system.cpu0.dcache.tags.occ_blocks::cpu0.data  1015.694696                       # Average occupied blocks per requestor
system.cpu0.dcache.tags.occ_percent::cpu0.data     0.991889                       # Average percentage of cache occupancy
system.cpu0.dcache.tags.occ_percent::total     0.991889                       # Average percentage of cache occupancy
system.cpu0.dcache.tags.occ_task_id_blocks::1024         1024                       # Occupied blocks per task id
system.cpu0.dcache.tags.age_task_id_blocks_1024::0          108                       # Occupied blocks per task id
system.cpu0.dcache.tags.age_task_id_blocks_1024::1          802                       # Occupied blocks per task id
system.cpu0.dcache.tags.age_task_id_blocks_1024::2          103                       # Occupied blocks per task id
system.cpu0.dcache.tags.age_task_id_blocks_1024::3           10                       # Occupied blocks per task id
system.cpu0.dcache.tags.age_task_id_blocks_1024::4            1                       # Occupied blocks per task id
system.cpu0.dcache.tags.occ_task_id_percent::1024            1                       # Percentage of cache occupancy per task id
system.cpu0.dcache.tags.tag_accesses        551628960                       # Number of tag accesses
system.cpu0.dcache.tags.data_accesses       551628960                       # Number of data accesses
system.cpu0.dcache.pwrStateResidencyTicks::UNDEFINED 2458072399500                       # Cumulative time (in ticks) in various power states
system.cpu0.dcache.ReadReq_hits::cpu0.data      9546115                       # number of ReadReq hits
system.cpu0.dcache.ReadReq_hits::total        9546115                       # number of ReadReq hits
system.cpu0.dcache.WriteReq_hits::cpu0.data      4823525                       # number of WriteReq hits
system.cpu0.dcache.WriteReq_hits::total       4823525                       # number of WriteReq hits
system.cpu0.dcache.LoadLockedReq_hits::cpu0.data       208743                       # number of LoadLockedReq hits
system.cpu0.dcache.LoadLockedReq_hits::total       208743                       # number of LoadLockedReq hits
system.cpu0.dcache.StoreCondReq_hits::cpu0.data       211818                       # number of StoreCondReq hits
system.cpu0.dcache.StoreCondReq_hits::total       211818                       # number of StoreCondReq hits
system.cpu0.dcache.demand_hits::cpu0.data     14369640                       # number of demand (read+write) hits
system.cpu0.dcache.demand_hits::total        14369640                       # number of demand (read+write) hits
system.cpu0.dcache.overall_hits::cpu0.data     14369640                       # number of overall hits
system.cpu0.dcache.overall_hits::total       14369640                       # number of overall hits
system.cpu0.dcache.ReadReq_misses::cpu0.data      1762748                       # number of ReadReq misses
system.cpu0.dcache.ReadReq_misses::total      1762748                       # number of ReadReq misses
system.cpu0.dcache.WriteReq_misses::cpu0.data       586554                       # number of WriteReq misses
system.cpu0.dcache.WriteReq_misses::total       586554                       # number of WriteReq misses
system.cpu0.dcache.LoadLockedReq_misses::cpu0.data        14581                       # number of LoadLockedReq misses
system.cpu0.dcache.LoadLockedReq_misses::total        14581                       # number of LoadLockedReq misses
system.cpu0.dcache.StoreCondReq_misses::cpu0.data        11227                       # number of StoreCondReq misses
system.cpu0.dcache.StoreCondReq_misses::total        11227                       # number of StoreCondReq misses
system.cpu0.dcache.demand_misses::cpu0.data      2349302                       # number of demand (read+write) misses
system.cpu0.dcache.demand_misses::total       2349302                       # number of demand (read+write) misses
system.cpu0.dcache.overall_misses::cpu0.data      2349302                       # number of overall misses
system.cpu0.dcache.overall_misses::total      2349302                       # number of overall misses
system.cpu0.dcache.ReadReq_miss_latency::cpu0.data  42553377000                       # number of ReadReq miss cycles
system.cpu0.dcache.ReadReq_miss_latency::total  42553377000                       # number of ReadReq miss cycles
system.cpu0.dcache.WriteReq_miss_latency::cpu0.data  37161673500                       # number of WriteReq miss cycles
system.cpu0.dcache.WriteReq_miss_latency::total  37161673500                       # number of WriteReq miss cycles
system.cpu0.dcache.LoadLockedReq_miss_latency::cpu0.data    147951000                       # number of LoadLockedReq miss cycles
system.cpu0.dcache.LoadLockedReq_miss_latency::total    147951000                       # number of LoadLockedReq miss cycles
system.cpu0.dcache.StoreCondReq_miss_latency::cpu0.data     58701500                       # number of StoreCondReq miss cycles
system.cpu0.dcache.StoreCondReq_miss_latency::total     58701500                       # number of StoreCondReq miss cycles
system.cpu0.dcache.StoreCondFailReq_miss_latency::cpu0.data         5500                       # number of StoreCondFailReq miss cycles
system.cpu0.dcache.StoreCondFailReq_miss_latency::total         5500                       # number of StoreCondFailReq miss cycles
system.cpu0.dcache.demand_miss_latency::cpu0.data  79715050500                       # number of demand (read+write) miss cycles
system.cpu0.dcache.demand_miss_latency::total  79715050500                       # number of demand (read+write) miss cycles
system.cpu0.dcache.overall_miss_latency::cpu0.data  79715050500                       # number of overall miss cycles
system.cpu0.dcache.overall_miss_latency::total  79715050500                       # number of overall miss cycles
system.cpu0.dcache.ReadReq_accesses::cpu0.data     11308863                       # number of ReadReq accesses(hits+misses)
system.cpu0.dcache.ReadReq_accesses::total     11308863                       # number of ReadReq accesses(hits+misses)
system.cpu0.dcache.WriteReq_accesses::cpu0.data      5410079                       # number of WriteReq accesses(hits+misses)
system.cpu0.dcache.WriteReq_accesses::total      5410079                       # number of WriteReq accesses(hits+misses)
system.cpu0.dcache.LoadLockedReq_accesses::cpu0.data       223324                       # number of LoadLockedReq accesses(hits+misses)
system.cpu0.dcache.LoadLockedReq_accesses::total       223324                       # number of LoadLockedReq accesses(hits+misses)
system.cpu0.dcache.StoreCondReq_accesses::cpu0.data       223045                       # number of StoreCondReq accesses(hits+misses)
system.cpu0.dcache.StoreCondReq_accesses::total       223045                       # number of StoreCondReq accesses(hits+misses)
system.cpu0.dcache.demand_accesses::cpu0.data     16718942                       # number of demand (read+write) accesses
system.cpu0.dcache.demand_accesses::total     16718942                       # number of demand (read+write) accesses
system.cpu0.dcache.overall_accesses::cpu0.data     16718942                       # number of overall (read+write) accesses
system.cpu0.dcache.overall_accesses::total     16718942                       # number of overall (read+write) accesses
system.cpu0.dcache.ReadReq_miss_rate::cpu0.data     0.155873                       # miss rate for ReadReq accesses
system.cpu0.dcache.ReadReq_miss_rate::total     0.155873                       # miss rate for ReadReq accesses
system.cpu0.dcache.WriteReq_miss_rate::cpu0.data     0.108419                       # miss rate for WriteReq accesses
system.cpu0.dcache.WriteReq_miss_rate::total     0.108419                       # miss rate for WriteReq accesses
system.cpu0.dcache.LoadLockedReq_miss_rate::cpu0.data     0.065291                       # miss rate for LoadLockedReq accesses
system.cpu0.dcache.LoadLockedReq_miss_rate::total     0.065291                       # miss rate for LoadLockedReq accesses
system.cpu0.dcache.StoreCondReq_miss_rate::cpu0.data     0.050335                       # miss rate for StoreCondReq accesses
system.cpu0.dcache.StoreCondReq_miss_rate::total     0.050335                       # miss rate for StoreCondReq accesses
system.cpu0.dcache.demand_miss_rate::cpu0.data     0.140517                       # miss rate for demand accesses
system.cpu0.dcache.demand_miss_rate::total     0.140517                       # miss rate for demand accesses
system.cpu0.dcache.overall_miss_rate::cpu0.data     0.140517                       # miss rate for overall accesses
system.cpu0.dcache.overall_miss_rate::total     0.140517                       # miss rate for overall accesses
system.cpu0.dcache.ReadReq_avg_miss_latency::cpu0.data 24140.363228                       # average ReadReq miss latency
system.cpu0.dcache.ReadReq_avg_miss_latency::total 24140.363228                       # average ReadReq miss latency
system.cpu0.dcache.WriteReq_avg_miss_latency::cpu0.data 63355.928866                       # average WriteReq miss latency
system.cpu0.dcache.WriteReq_avg_miss_latency::total 63355.928866                       # average WriteReq miss latency
system.cpu0.dcache.LoadLockedReq_avg_miss_latency::cpu0.data 10146.834922                       # average LoadLockedReq miss latency
system.cpu0.dcache.LoadLockedReq_avg_miss_latency::total 10146.834922                       # average LoadLockedReq miss latency
system.cpu0.dcache.StoreCondReq_avg_miss_latency::cpu0.data  5228.600695                       # average StoreCondReq miss latency
system.cpu0.dcache.StoreCondReq_avg_miss_latency::total  5228.600695                       # average StoreCondReq miss latency
system.cpu0.dcache.StoreCondFailReq_avg_miss_latency::cpu0.data          inf                       # average StoreCondFailReq miss latency
system.cpu0.dcache.StoreCondFailReq_avg_miss_latency::total          inf                       # average StoreCondFailReq miss latency
system.cpu0.dcache.demand_avg_miss_latency::cpu0.data 33931.376426                       # average overall miss latency
system.cpu0.dcache.demand_avg_miss_latency::total 33931.376426                       # average overall miss latency
system.cpu0.dcache.overall_avg_miss_latency::cpu0.data 33931.376426                       # average overall miss latency
system.cpu0.dcache.overall_avg_miss_latency::total 33931.376426                       # average overall miss latency
system.cpu0.dcache.blocked_cycles::no_mshrs            0                       # number of cycles access was blocked
system.cpu0.dcache.blocked_cycles::no_targets            0                       # number of cycles access was blocked
system.cpu0.dcache.blocked::no_mshrs                0                       # number of cycles access was blocked
system.cpu0.dcache.blocked::no_targets              0                       # number of cycles access was blocked
system.cpu0.dcache.avg_blocked_cycles::no_mshrs          nan                       # average number of cycles each access was blocked
system.cpu0.dcache.avg_blocked_cycles::no_targets          nan                       # average number of cycles each access was blocked
system.cpu0.dcache.writebacks::writebacks      1938271                       # number of writebacks
system.cpu0.dcache.writebacks::total          1938271                       # number of writebacks
system.cpu0.dcache.ReadReq_mshr_misses::cpu0.data      1762748                       # number of ReadReq MSHR misses
system.cpu0.dcache.ReadReq_mshr_misses::total      1762748                       # number of ReadReq MSHR misses
system.cpu0.dcache.WriteReq_mshr_misses::cpu0.data       586554                       # number of WriteReq MSHR misses
system.cpu0.dcache.WriteReq_mshr_misses::total       586554                       # number of WriteReq MSHR misses
system.cpu0.dcache.LoadLockedReq_mshr_misses::cpu0.data        14581                       # number of LoadLockedReq MSHR misses
system.cpu0.dcache.LoadLockedReq_mshr_misses::total        14581                       # number of LoadLockedReq MSHR misses
system.cpu0.dcache.StoreCondReq_mshr_misses::cpu0.data        11227                       # number of StoreCondReq MSHR misses
system.cpu0.dcache.StoreCondReq_mshr_misses::total        11227                       # number of StoreCondReq MSHR misses
system.cpu0.dcache.demand_mshr_misses::cpu0.data      2349302                       # number of demand (read+write) MSHR misses
system.cpu0.dcache.demand_mshr_misses::total      2349302                       # number of demand (read+write) MSHR misses
system.cpu0.dcache.overall_mshr_misses::cpu0.data      2349302                       # number of overall MSHR misses
system.cpu0.dcache.overall_mshr_misses::total      2349302                       # number of overall MSHR misses
system.cpu0.dcache.ReadReq_mshr_uncacheable::cpu0.data         5222                       # number of ReadReq MSHR uncacheable
system.cpu0.dcache.ReadReq_mshr_uncacheable::total         5222                       # number of ReadReq MSHR uncacheable
system.cpu0.dcache.WriteReq_mshr_uncacheable::cpu0.data         9829                       # number of WriteReq MSHR uncacheable
system.cpu0.dcache.WriteReq_mshr_uncacheable::total         9829                       # number of WriteReq MSHR uncacheable
system.cpu0.dcache.overall_mshr_uncacheable_misses::cpu0.data        15051                       # number of overall MSHR uncacheable misses
system.cpu0.dcache.overall_mshr_uncacheable_misses::total        15051                       # number of overall MSHR uncacheable misses
system.cpu0.dcache.ReadReq_mshr_miss_latency::cpu0.data  40790629000                       # number of ReadReq MSHR miss cycles
system.cpu0.dcache.ReadReq_mshr_miss_latency::total  40790629000                       # number of ReadReq MSHR miss cycles
system.cpu0.dcache.WriteReq_mshr_miss_latency::cpu0.data  36575119500                       # number of WriteReq MSHR miss cycles
system.cpu0.dcache.WriteReq_mshr_miss_latency::total  36575119500                       # number of WriteReq MSHR miss cycles
system.cpu0.dcache.LoadLockedReq_mshr_miss_latency::cpu0.data    133370000                       # number of LoadLockedReq MSHR miss cycles
system.cpu0.dcache.LoadLockedReq_mshr_miss_latency::total    133370000                       # number of LoadLockedReq MSHR miss cycles
system.cpu0.dcache.StoreCondReq_mshr_miss_latency::cpu0.data     47475500                       # number of StoreCondReq MSHR miss cycles
system.cpu0.dcache.StoreCondReq_mshr_miss_latency::total     47475500                       # number of StoreCondReq MSHR miss cycles
system.cpu0.dcache.StoreCondFailReq_mshr_miss_latency::cpu0.data         4500                       # number of StoreCondFailReq MSHR miss cycles
system.cpu0.dcache.StoreCondFailReq_mshr_miss_latency::total         4500                       # number of StoreCondFailReq MSHR miss cycles
system.cpu0.dcache.demand_mshr_miss_latency::cpu0.data  77365748500                       # number of demand (read+write) MSHR miss cycles
system.cpu0.dcache.demand_mshr_miss_latency::total  77365748500                       # number of demand (read+write) MSHR miss cycles
system.cpu0.dcache.overall_mshr_miss_latency::cpu0.data  77365748500                       # number of overall MSHR miss cycles
system.cpu0.dcache.overall_mshr_miss_latency::total  77365748500                       # number of overall MSHR miss cycles
system.cpu0.dcache.ReadReq_mshr_uncacheable_latency::cpu0.data   1189385000                       # number of ReadReq MSHR uncacheable cycles
system.cpu0.dcache.ReadReq_mshr_uncacheable_latency::total   1189385000                       # number of ReadReq MSHR uncacheable cycles
system.cpu0.dcache.overall_mshr_uncacheable_latency::cpu0.data   1189385000                       # number of overall MSHR uncacheable cycles
system.cpu0.dcache.overall_mshr_uncacheable_latency::total   1189385000                       # number of overall MSHR uncacheable cycles
system.cpu0.dcache.ReadReq_mshr_miss_rate::cpu0.data     0.155873                       # mshr miss rate for ReadReq accesses
system.cpu0.dcache.ReadReq_mshr_miss_rate::total     0.155873                       # mshr miss rate for ReadReq accesses
system.cpu0.dcache.WriteReq_mshr_miss_rate::cpu0.data     0.108419                       # mshr miss rate for WriteReq accesses
system.cpu0.dcache.WriteReq_mshr_miss_rate::total     0.108419                       # mshr miss rate for WriteReq accesses
system.cpu0.dcache.LoadLockedReq_mshr_miss_rate::cpu0.data     0.065291                       # mshr miss rate for LoadLockedReq accesses
system.cpu0.dcache.LoadLockedReq_mshr_miss_rate::total     0.065291                       # mshr miss rate for LoadLockedReq accesses
system.cpu0.dcache.StoreCondReq_mshr_miss_rate::cpu0.data     0.050335                       # mshr miss rate for StoreCondReq accesses
system.cpu0.dcache.StoreCondReq_mshr_miss_rate::total     0.050335                       # mshr miss rate for StoreCondReq accesses
system.cpu0.dcache.demand_mshr_miss_rate::cpu0.data     0.140517                       # mshr miss rate for demand accesses
system.cpu0.dcache.demand_mshr_miss_rate::total     0.140517                       # mshr miss rate for demand accesses
system.cpu0.dcache.overall_mshr_miss_rate::cpu0.data     0.140517                       # mshr miss rate for overall accesses
system.cpu0.dcache.overall_mshr_miss_rate::total     0.140517                       # mshr miss rate for overall accesses
system.cpu0.dcache.ReadReq_avg_mshr_miss_latency::cpu0.data 23140.363228                       # average ReadReq mshr miss latency
system.cpu0.dcache.ReadReq_avg_mshr_miss_latency::total 23140.363228                       # average ReadReq mshr miss latency
system.cpu0.dcache.WriteReq_avg_mshr_miss_latency::cpu0.data 62355.928866                       # average WriteReq mshr miss latency
system.cpu0.dcache.WriteReq_avg_mshr_miss_latency::total 62355.928866                       # average WriteReq mshr miss latency
system.cpu0.dcache.LoadLockedReq_avg_mshr_miss_latency::cpu0.data  9146.834922                       # average LoadLockedReq mshr miss latency
system.cpu0.dcache.LoadLockedReq_avg_mshr_miss_latency::total  9146.834922                       # average LoadLockedReq mshr miss latency
system.cpu0.dcache.StoreCondReq_avg_mshr_miss_latency::cpu0.data  4228.689766                       # average StoreCondReq mshr miss latency
system.cpu0.dcache.StoreCondReq_avg_mshr_miss_latency::total  4228.689766                       # average StoreCondReq mshr miss latency
system.cpu0.dcache.StoreCondFailReq_avg_mshr_miss_latency::cpu0.data          inf                       # average StoreCondFailReq mshr miss latency
[...]
system.membus.pkt_size::total                 2108501                       # Cumulative packet size per connected master and slave (bytes)
system.membus.snoops                             2770                       # Total snoops (count)
system.membus.snoopTraffic                        960                       # Total snoop traffic (bytes)
system.membus.snoop_fanout::samples             52327                       # Request fanout histogram
system.membus.snoop_fanout::mean             0.037266                       # Request fanout histogram
system.membus.snoop_fanout::stdev            0.189414                       # Request fanout histogram
system.membus.snoop_fanout::underflows              0      0.00%      0.00% # Request fanout histogram
system.membus.snoop_fanout::0                   50377     96.27%     96.27% # Request fanout histogram
system.membus.snoop_fanout::1                    1950      3.73%    100.00% # Request fanout histogram
system.membus.snoop_fanout::2                       0      0.00%    100.00% # Request fanout histogram
system.membus.snoop_fanout::overflows               0      0.00%    100.00% # Request fanout histogram
system.membus.snoop_fanout::min_value               0                       # Request fanout histogram
system.membus.snoop_fanout::max_value               1                       # Request fanout histogram
system.membus.snoop_fanout::total               52327                       # Request fanout histogram
system.membus.reqLayer0.occupancy             1813998                       # Layer occupancy (ticks)
system.membus.reqLayer0.utilization               0.0                       # Layer utilization (%)
system.membus.reqLayer1.occupancy           175136232                       # Layer occupancy (ticks)
system.membus.reqLayer1.utilization               2.9                       # Layer utilization (%)
system.membus.respLayer1.occupancy            2086400                       # Layer occupancy (ticks)
system.membus.respLayer1.utilization              0.0                       # Layer utilization (%)
system.membus.respLayer2.occupancy           92923250                       # Layer occupancy (ticks)
system.membus.respLayer2.utilization              1.6                       # Layer utilization (%)
system.membus.badaddr_responder.pwrStateResidencyTicks::UNDEFINED   5938849000                       # Cumulative time (in ticks) in various power states
system.tol2bus.snoop_filter.tot_requests       274135                       # Total number of requests made to the snoop filter.
system.tol2bus.snoop_filter.hit_single_requests       127701                       # Number of requests hitting in the snoop filter with a single holder of the requested data.
system.tol2bus.snoop_filter.hit_multi_requests        29262                       # Number of requests hitting in the snoop filter with multiple (>1) holders of the requested data.
system.tol2bus.snoop_filter.tot_snoops           2693                       # Total number of snoops made to the snoop filter.
system.tol2bus.snoop_filter.hit_single_snoops         2275                       # Number of snoops hitting in the snoop filter with a single holder of the requested data.
system.tol2bus.snoop_filter.hit_multi_snoops          418                       # Number of snoops hitting in the snoop filter with multiple (>1) holders of the requested data.
system.tol2bus.pwrStateResidencyTicks::UNDEFINED   5938849000                       # Cumulative time (in ticks) in various power states
system.tol2bus.trans_dist::ReadReq                589                       # Transaction distribution
system.tol2bus.trans_dist::ReadResp            108727                       # Transaction distribution
system.tol2bus.trans_dist::WriteReq               466                       # Transaction distribution
system.tol2bus.trans_dist::WriteResp              466                       # Transaction distribution
system.tol2bus.trans_dist::WritebackDirty        55806                       # Transaction distribution
system.tol2bus.trans_dist::WritebackClean        81835                       # Transaction distribution
system.tol2bus.trans_dist::CleanEvict           25172                       # Transaction distribution
system.tol2bus.trans_dist::UpgradeReq             691                       # Transaction distribution
system.tol2bus.trans_dist::SCUpgradeReq           235                       # Transaction distribution
system.tol2bus.trans_dist::UpgradeResp            926                       # Transaction distribution
system.tol2bus.trans_dist::ReadExReq            29628                       # Transaction distribution
system.tol2bus.trans_dist::ReadExResp           29628                       # Transaction distribution
system.tol2bus.trans_dist::ReadCleanReq         81839                       # Transaction distribution
system.tol2bus.trans_dist::ReadSharedReq        26299                       # Transaction distribution
system.tol2bus.trans_dist::InvalidateReq         1920                       # Transaction distribution
system.tol2bus.trans_dist::InvalidateResp           16                       # Transaction distribution
system.tol2bus.pkt_count_system.cpu0.icache.mem_side::system.l2.cpu_side        70054                       # Packet count per connected master and slave (bytes)
system.tol2bus.pkt_count_system.cpu0.dcache.mem_side::system.l2.cpu_side        87316                       # Packet count per connected master and slave (bytes)
system.tol2bus.pkt_count_system.cpu1.icache.mem_side::system.l2.cpu_side        18142                       # Packet count per connected master and slave (bytes)
system.tol2bus.pkt_count_system.cpu1.dcache.mem_side::system.l2.cpu_side        11885                       # Packet count per connected master and slave (bytes)
system.tol2bus.pkt_count_system.cpu2.icache.mem_side::system.l2.cpu_side       136295                       # Packet count per connected master and slave (bytes)
system.tol2bus.pkt_count_system.cpu2.dcache.mem_side::system.l2.cpu_side        53225                       # Packet count per connected master and slave (bytes)
system.tol2bus.pkt_count_system.cpu3.icache.mem_side::system.l2.cpu_side        21015                       # Packet count per connected master and slave (bytes)
system.tol2bus.pkt_count_system.cpu3.dcache.mem_side::system.l2.cpu_side        12119                       # Packet count per connected master and slave (bytes)
system.tol2bus.pkt_count::total                410051                       # Packet count per connected master and slave (bytes)
system.tol2bus.pkt_size_system.cpu0.icache.mem_side::system.l2.cpu_side      1494432                       # Cumulative packet size per connected master and slave (bytes)
system.tol2bus.pkt_size_system.cpu0.dcache.mem_side::system.l2.cpu_side      1590436                       # Cumulative packet size per connected master and slave (bytes)
system.tol2bus.pkt_size_system.cpu1.icache.mem_side::system.l2.cpu_side       387008                       # Cumulative packet size per connected master and slave (bytes)
system.tol2bus.pkt_size_system.cpu1.dcache.mem_side::system.l2.cpu_side       202972                       # Cumulative packet size per connected master and slave (bytes)
system.tol2bus.pkt_size_system.cpu2.icache.mem_side::system.l2.cpu_side      2907584                       # Cumulative packet size per connected master and slave (bytes)
system.tol2bus.pkt_size_system.cpu2.dcache.mem_side::system.l2.cpu_side       949513                       # Cumulative packet size per connected master and slave (bytes)
system.tol2bus.pkt_size_system.cpu3.icache.mem_side::system.l2.cpu_side       448320                       # Cumulative packet size per connected master and slave (bytes)
system.tol2bus.pkt_size_system.cpu3.dcache.mem_side::system.l2.cpu_side       208588                       # Cumulative packet size per connected master and slave (bytes)
system.tol2bus.pkt_size::total                8188853                       # Cumulative packet size per connected master and slave (bytes)
system.tol2bus.snoops                           34238                       # Total snoops (count)
system.tol2bus.snoopTraffic                    627008                       # Total snoop traffic (bytes)
system.tol2bus.snoop_fanout::samples           169007                       # Request fanout histogram
system.tol2bus.snoop_fanout::mean            0.229570                       # Request fanout histogram
system.tol2bus.snoop_fanout::stdev           0.639052                       # Request fanout histogram
system.tol2bus.snoop_fanout::underflows             0      0.00%      0.00% # Request fanout histogram
system.tol2bus.snoop_fanout::0                 144853     85.71%     85.71% # Request fanout histogram
system.tol2bus.snoop_fanout::1                  14418      8.53%     94.24% # Request fanout histogram
system.tol2bus.snoop_fanout::2                   4837      2.86%     97.10% # Request fanout histogram
system.tol2bus.snoop_fanout::3                   4889      2.89%     99.99% # Request fanout histogram
system.tol2bus.snoop_fanout::4                     10      0.01%    100.00% # Request fanout histogram
system.tol2bus.snoop_fanout::5                      0      0.00%    100.00% # Request fanout histogram
system.tol2bus.snoop_fanout::6                      0      0.00%    100.00% # Request fanout histogram
system.tol2bus.snoop_fanout::7                      0      0.00%    100.00% # Request fanout histogram
system.tol2bus.snoop_fanout::8                      0      0.00%    100.00% # Request fanout histogram
system.tol2bus.snoop_fanout::overflows              0      0.00%    100.00% # Request fanout histogram
system.tol2bus.snoop_fanout::min_value              0                       # Request fanout histogram
system.tol2bus.snoop_fanout::max_value              4                       # Request fanout histogram
system.tol2bus.snoop_fanout::total             169007                       # Request fanout histogram
system.tol2bus.reqLayer0.occupancy          198923500                       # Layer occupancy (ticks)
system.tol2bus.reqLayer0.utilization              3.3                       # Layer utilization (%)
system.tol2bus.snoopLayer0.occupancy            45984                       # Layer occupancy (ticks)
system.tol2bus.snoopLayer0.utilization            0.0                       # Layer utilization (%)
system.tol2bus.respLayer0.occupancy          23366972                       # Layer occupancy (ticks)
system.tol2bus.respLayer0.utilization             0.4                       # Layer utilization (%)
system.tol2bus.respLayer1.occupancy          29832454                       # Layer occupancy (ticks)
system.tol2bus.respLayer1.utilization             0.5                       # Layer utilization (%)
system.tol2bus.respLayer2.occupancy           6061972                       # Layer occupancy (ticks)
system.tol2bus.respLayer2.utilization             0.1                       # Layer utilization (%)
system.tol2bus.respLayer3.occupancy           4373971                       # Layer occupancy (ticks)
system.tol2bus.respLayer3.utilization             0.1                       # Layer utilization (%)
system.tol2bus.respLayer4.occupancy          45450465                       # Layer occupancy (ticks)
system.tol2bus.respLayer4.utilization             0.8                       # Layer utilization (%)
system.tol2bus.respLayer5.occupancy          18543979                       # Layer occupancy (ticks)
system.tol2bus.respLayer5.utilization             0.3                       # Layer utilization (%)
system.tol2bus.respLayer6.occupancy           7012984                       # Layer occupancy (ticks)
system.tol2bus.respLayer6.utilization             0.1                       # Layer utilization (%)
system.tol2bus.respLayer7.occupancy           4498961                       # Layer occupancy (ticks)
system.tol2bus.respLayer7.utilization             0.1                       # Layer utilization (%)
system.tsunami.backdoor.pwrStateResidencyTicks::UNDEFINED   5938849000                       # Cumulative time (in ticks) in various power states
system.tsunami.cchip.pwrStateResidencyTicks::UNDEFINED   5938849000                       # Cumulative time (in ticks) in various power states
system.tsunami.pchip.pwrStateResidencyTicks::UNDEFINED   5938849000                       # Cumulative time (in ticks) in various power states
system.tsunami.ethernet.pwrStateResidencyTicks::UNDEFINED   5938849000                       # Cumulative time (in ticks) in various power states
system.tsunami.ethernet.descDMAReads                0                       # Number of descriptors the device read w/ DMA
system.tsunami.ethernet.descDMAWrites               0                       # Number of descriptors the device wrote w/ DMA
system.tsunami.ethernet.descDmaReadBytes            0                       # number of descriptor bytes read w/ DMA
system.tsunami.ethernet.descDmaWriteBytes            0                       # number of descriptor bytes write w/ DMA
system.tsunami.ethernet.postedSwi                   0                       # number of software interrupts posted to CPU
system.tsunami.ethernet.coalescedSwi              nan                       # average number of Swi's coalesced into each post
system.tsunami.ethernet.totalSwi                    0                       # total number of Swi written to ISR
system.tsunami.ethernet.postedRxIdle                0                       # number of rxIdle interrupts posted to CPU
system.tsunami.ethernet.coalescedRxIdle           nan                       # average number of RxIdle's coalesced into each post
system.tsunami.ethernet.totalRxIdle                 0                       # total number of RxIdle written to ISR
system.tsunami.ethernet.postedRxOk                  0                       # number of RxOk interrupts posted to CPU
system.tsunami.ethernet.coalescedRxOk             nan                       # average number of RxOk's coalesced into each post
system.tsunami.ethernet.totalRxOk                   0                       # total number of RxOk written to ISR
system.tsunami.ethernet.postedRxDesc                0                       # number of RxDesc interrupts posted to CPU
system.tsunami.ethernet.coalescedRxDesc           nan                       # average number of RxDesc's coalesced into each post
system.tsunami.ethernet.totalRxDesc                 0                       # total number of RxDesc written to ISR
system.tsunami.ethernet.postedTxOk                  0                       # number of TxOk interrupts posted to CPU
system.tsunami.ethernet.coalescedTxOk             nan                       # average number of TxOk's coalesced into each post
system.tsunami.ethernet.totalTxOk                   0                       # total number of TxOk written to ISR
system.tsunami.ethernet.postedTxIdle                0                       # number of TxIdle interrupts posted to CPU
system.tsunami.ethernet.coalescedTxIdle           nan                       # average number of TxIdle's coalesced into each post
system.tsunami.ethernet.totalTxIdle                 0                       # total number of TxIdle written to ISR
system.tsunami.ethernet.postedTxDesc                0                       # number of TxDesc interrupts posted to CPU
system.tsunami.ethernet.coalescedTxDesc           nan                       # average number of TxDesc's coalesced into each post
system.tsunami.ethernet.totalTxDesc                 0                       # total number of TxDesc written to ISR
system.tsunami.ethernet.postedRxOrn                 0                       # number of RxOrn posted to CPU
system.tsunami.ethernet.coalescedRxOrn            nan                       # average number of RxOrn's coalesced into each post
system.tsunami.ethernet.totalRxOrn                  0                       # total number of RxOrn written to ISR
system.tsunami.ethernet.coalescedTotal            nan                       # average number of interrupts coalesced into each post
system.tsunami.ethernet.postedInterrupts            0                       # number of posts to CPU
system.tsunami.ethernet.droppedPackets              0                       # number of packets dropped
system.tsunami.fake_OROM.pwrStateResidencyTicks::UNDEFINED   5938849000                       # Cumulative time (in ticks) in various power states
system.tsunami.fake_ata0.pwrStateResidencyTicks::UNDEFINED   5938849000                       # Cumulative time (in ticks) in various power states
system.tsunami.fake_ata1.pwrStateResidencyTicks::UNDEFINED   5938849000                       # Cumulative time (in ticks) in various power states
system.tsunami.fake_pnp_addr.pwrStateResidencyTicks::UNDEFINED   5938849000                       # Cumulative time (in ticks) in various power states
system.tsunami.fake_pnp_read0.pwrStateResidencyTicks::UNDEFINED   5938849000                       # Cumulative time (in ticks) in various power states
system.tsunami.fake_pnp_read1.pwrStateResidencyTicks::UNDEFINED   5938849000                       # Cumulative time (in ticks) in various power states
system.tsunami.fake_pnp_read2.pwrStateResidencyTicks::UNDEFINED   5938849000                       # Cumulative time (in ticks) in various power states
system.tsunami.fake_pnp_read3.pwrStateResidencyTicks::UNDEFINED   5938849000                       # Cumulative time (in ticks) in various power states
system.tsunami.fake_pnp_read4.pwrStateResidencyTicks::UNDEFINED   5938849000                       # Cumulative time (in ticks) in various power states
system.tsunami.fake_pnp_read5.pwrStateResidencyTicks::UNDEFINED   5938849000                       # Cumulative time (in ticks) in various power states
system.tsunami.fake_pnp_read6.pwrStateResidencyTicks::UNDEFINED   5938849000                       # Cumulative time (in ticks) in various power states
system.tsunami.fake_pnp_read7.pwrStateResidencyTicks::UNDEFINED   5938849000                       # Cumulative time (in ticks) in various power states
system.tsunami.fake_pnp_write.pwrStateResidencyTicks::UNDEFINED   5938849000                       # Cumulative time (in ticks) in various power states
system.tsunami.fake_ppc.pwrStateResidencyTicks::UNDEFINED   5938849000                       # Cumulative time (in ticks) in various power states
system.tsunami.fake_sm_chip.pwrStateResidencyTicks::UNDEFINED   5938849000                       # Cumulative time (in ticks) in various power states
system.tsunami.fake_uart1.pwrStateResidencyTicks::UNDEFINED   5938849000                       # Cumulative time (in ticks) in various power states
system.tsunami.fake_uart2.pwrStateResidencyTicks::UNDEFINED   5938849000                       # Cumulative time (in ticks) in various power states
system.tsunami.fake_uart3.pwrStateResidencyTicks::UNDEFINED   5938849000                       # Cumulative time (in ticks) in various power states
system.tsunami.fake_uart4.pwrStateResidencyTicks::UNDEFINED   5938849000                       # Cumulative time (in ticks) in various power states
system.tsunami.fb.pwrStateResidencyTicks::UNDEFINED   5938849000                       # Cumulative time (in ticks) in various power states
system.tsunami.ide.pwrStateResidencyTicks::UNDEFINED   5938849000                       # Cumulative time (in ticks) in various power states
system.tsunami.io.pwrStateResidencyTicks::UNDEFINED   5938849000                       # Cumulative time (in ticks) in various power states
system.tsunami.uart.pwrStateResidencyTicks::UNDEFINED   5938849000                       # Cumulative time (in ticks) in various power states

---------- End Simulation Statistics   ----------
