
---------- Begin Simulation Statistics ----------
sim_seconds                                  2.634582                       # Number of seconds simulated
sim_ticks                                2634582169500                       # Number of ticks simulated
final_tick                               2634582169500                       # Number of ticks from beginning of simulation (restored from checkpoints and never reset)
sim_freq                                 1000000000000                       # Frequency of simulated ticks
host_inst_rate                                 184066                       # Simulator instruction rate (inst/s)
host_op_rate                                   184066                       # Simulator op (including micro ops) rate (op/s)
host_tick_rate                             4978022382                       # Simulator tick rate (ticks/s)
host_mem_usage                                 733028                       # Number of bytes of host memory used
host_seconds                                   529.24                       # Real time elapsed on the host
sim_insts                                    97415552                       # Number of instructions simulated
sim_ops                                      97415552                       # Number of ops (including micro ops) simulated
system.voltage_domain.voltage                       1                       # Voltage in Volts
system.clk_domain.clock                          1000                       # Clock period in ticks
system.mem_ctrls.pwrStateResidencyTicks::UNDEFINED 2634582169500                       # Cumulative time (in ticks) in various power states
system.mem_ctrls.bytes_read::cpu.inst        50577088                       # Number of bytes read from this memory
system.mem_ctrls.bytes_read::cpu.data       178779776                       # Number of bytes read from this memory
system.mem_ctrls.bytes_read::tsunami.ide         4032                       # Number of bytes read from this memory
system.mem_ctrls.bytes_read::total          229360896                       # Number of bytes read from this memory
system.mem_ctrls.bytes_inst_read::cpu.inst     50577088                       # Number of instructions bytes read from this memory
system.mem_ctrls.bytes_inst_read::total      50577088                       # Number of instructions bytes read from this memory
system.mem_ctrls.bytes_written::writebacks     34599040                       # Number of bytes written to this memory
system.mem_ctrls.bytes_written::total        34599040                       # Number of bytes written to this memory
system.mem_ctrls.num_reads::cpu.inst           790267                       # Number of read requests responded to by this memory
system.mem_ctrls.num_reads::cpu.data          2793434                       # Number of read requests responded to by this memory
system.mem_ctrls.num_reads::tsunami.ide            63                       # Number of read requests responded to by this memory
system.mem_ctrls.num_reads::total             3583764                       # Number of read requests responded to by this memory
system.mem_ctrls.num_writes::writebacks        540610                       # Number of write requests responded to by this memory
system.mem_ctrls.num_writes::total             540610                       # Number of write requests responded to by this memory
system.mem_ctrls.bw_read::cpu.inst           19197385                       # Total read bandwidth from this memory (bytes/s)
system.mem_ctrls.bw_read::cpu.data           67858873                       # Total read bandwidth from this memory (bytes/s)
system.mem_ctrls.bw_read::tsunami.ide            1530                       # Total read bandwidth from this memory (bytes/s)
system.mem_ctrls.bw_read::total              87057788                       # Total read bandwidth from this memory (bytes/s)
system.mem_ctrls.bw_inst_read::cpu.inst      19197385                       # Instruction read bandwidth from this memory (bytes/s)
system.mem_ctrls.bw_inst_read::total         19197385                       # Instruction read bandwidth from this memory (bytes/s)
system.mem_ctrls.bw_write::writebacks        13132648                       # Write bandwidth from this memory (bytes/s)
system.mem_ctrls.bw_write::total             13132648                       # Write bandwidth from this memory (bytes/s)
system.mem_ctrls.bw_total::writebacks        13132648                       # Total bandwidth to/from this memory (bytes/s)
system.mem_ctrls.bw_total::cpu.inst          19197385                       # Total bandwidth to/from this memory (bytes/s)
system.mem_ctrls.bw_total::cpu.data          67858873                       # Total bandwidth to/from this memory (bytes/s)
system.mem_ctrls.bw_total::tsunami.ide           1530                       # Total bandwidth to/from this memory (bytes/s)
system.mem_ctrls.bw_total::total            100190436                       # Total bandwidth to/from this memory (bytes/s)
system.mem_ctrls.readReqs                     3583764                       # Number of read requests accepted
system.mem_ctrls.writeReqs                     540610                       # Number of write requests accepted
system.mem_ctrls.readBursts                   3583764                       # Number of DRAM read bursts, including those serviced by the write queue
system.mem_ctrls.writeBursts                   540610                       # Number of DRAM write bursts, including those merged in the write queue
system.mem_ctrls.bytesReadDRAM              228289984                       # Total number of bytes read from DRAM
system.mem_ctrls.bytesReadWrQ                 1070912                       # Total number of bytes read from write queue
system.mem_ctrls.bytesWritten                34582272                       # Total number of bytes written to DRAM
system.mem_ctrls.bytesReadSys               229360896                       # Total read bytes from the system interface side
system.mem_ctrls.bytesWrittenSys             34599040                       # Total written bytes from the system interface side
system.mem_ctrls.servicedByWrQ                  16733                       # Number of DRAM read bursts serviced by the write queue
system.mem_ctrls.mergedWrBursts                   234                       # Number of DRAM write bursts merged with an existing one
system.mem_ctrls.neitherReadNorWriteReqs            0                       # Number of requests that are neither read nor write
system.mem_ctrls.perBankRdBursts::0            243413                       # Per bank write bursts
system.mem_ctrls.perBankRdBursts::1            211774                       # Per bank write bursts
system.mem_ctrls.perBankRdBursts::2            238506                       # Per bank write bursts
system.mem_ctrls.perBankRdBursts::3            129250                       # Per bank write bursts
system.mem_ctrls.perBankRdBursts::4            138623                       # Per bank write bursts
system.mem_ctrls.perBankRdBursts::5            236702                       # Per bank write bursts
system.mem_ctrls.perBankRdBursts::6            193791                       # Per bank write bursts
system.mem_ctrls.perBankRdBursts::7            157690                       # Per bank write bursts
system.mem_ctrls.perBankRdBursts::8            251835                       # Per bank write bursts
system.mem_ctrls.perBankRdBursts::9            230929                       # Per bank write bursts
system.mem_ctrls.perBankRdBursts::10           248949                       # Per bank write bursts
system.mem_ctrls.perBankRdBursts::11           313655                       # Per bank write bursts
system.mem_ctrls.perBankRdBursts::12           227526                       # Per bank write bursts
system.mem_ctrls.perBankRdBursts::13           327757                       # Per bank write bursts
system.mem_ctrls.perBankRdBursts::14           206726                       # Per bank write bursts
system.mem_ctrls.perBankRdBursts::15           209905                       # Per bank write bursts
system.mem_ctrls.perBankWrBursts::0             27597                       # Per bank write bursts
system.mem_ctrls.perBankWrBursts::1             37439                       # Per bank write bursts
system.mem_ctrls.perBankWrBursts::2             26212                       # Per bank write bursts
system.mem_ctrls.perBankWrBursts::3             27357                       # Per bank write bursts
system.mem_ctrls.perBankWrBursts::4             26842                       # Per bank write bursts
system.mem_ctrls.perBankWrBursts::5             27215                       # Per bank write bursts
system.mem_ctrls.perBankWrBursts::6             30088                       # Per bank write bursts
system.mem_ctrls.perBankWrBursts::7             30437                       # Per bank write bursts
system.mem_ctrls.perBankWrBursts::8             44004                       # Per bank write bursts
system.mem_ctrls.perBankWrBursts::9             40842                       # Per bank write bursts
system.mem_ctrls.perBankWrBursts::10            31799                       # Per bank write bursts
system.mem_ctrls.perBankWrBursts::11            43156                       # Per bank write bursts
system.mem_ctrls.perBankWrBursts::12            26836                       # Per bank write bursts
system.mem_ctrls.perBankWrBursts::13            35738                       # Per bank write bursts
system.mem_ctrls.perBankWrBursts::14            26860                       # Per bank write bursts
system.mem_ctrls.perBankWrBursts::15            57926                       # Per bank write bursts
system.mem_ctrls.numRdRetry                         0                       # Number of times read queue was full causing retry
system.mem_ctrls.numWrRetry                        52                       # Number of times write queue was full causing retry
system.mem_ctrls.totGap                  2634582151500                       # Total gap between requests
system.mem_ctrls.readPktSize::0                     0                       # Read request sizes (log2)
system.mem_ctrls.readPktSize::1                     0                       # Read request sizes (log2)
system.mem_ctrls.readPktSize::2                     0                       # Read request sizes (log2)
system.mem_ctrls.readPktSize::3                     0                       # Read request sizes (log2)
system.mem_ctrls.readPktSize::4                     0                       # Read request sizes (log2)
system.mem_ctrls.readPktSize::5                     0                       # Read request sizes (log2)
system.mem_ctrls.readPktSize::6               3583764                       # Read request sizes (log2)
system.mem_ctrls.writePktSize::0                    0                       # Write request sizes (log2)
system.mem_ctrls.writePktSize::1                    0                       # Write request sizes (log2)
system.mem_ctrls.writePktSize::2                    0                       # Write request sizes (log2)
system.mem_ctrls.writePktSize::3                    0                       # Write request sizes (log2)
system.mem_ctrls.writePktSize::4                    0                       # Write request sizes (log2)
system.mem_ctrls.writePktSize::5                    0                       # Write request sizes (log2)
system.mem_ctrls.writePktSize::6               540610                       # Write request sizes (log2)
system.mem_ctrls.rdQLenPdf::0                 3566965                       # What read queue length does an incoming req see
system.mem_ctrls.rdQLenPdf::1                       4                       # What read queue length does an incoming req see
system.mem_ctrls.rdQLenPdf::2                       3                       # What read queue length does an incoming req see
system.mem_ctrls.rdQLenPdf::3                       3                       # What read queue length does an incoming req see
system.mem_ctrls.rdQLenPdf::4                       4                       # What read queue length does an incoming req see
system.mem_ctrls.rdQLenPdf::5                       4                       # What read queue length does an incoming req see
system.mem_ctrls.rdQLenPdf::6                       4                       # What read queue length does an incoming req see
system.mem_ctrls.rdQLenPdf::7                       5                       # What read queue length does an incoming req see
system.mem_ctrls.rdQLenPdf::8                       4                       # What read queue length does an incoming req see
system.mem_ctrls.rdQLenPdf::9                       5                       # What read queue length does an incoming req see
system.mem_ctrls.rdQLenPdf::10                      4                       # What read queue length does an incoming req see
system.mem_ctrls.rdQLenPdf::11                      8                       # What read queue length does an incoming req see
system.mem_ctrls.rdQLenPdf::12                      2                       # What read queue length does an incoming req see
system.mem_ctrls.rdQLenPdf::13                      3                       # What read queue length does an incoming req see
system.mem_ctrls.rdQLenPdf::14                      2                       # What read queue length does an incoming req see
system.mem_ctrls.rdQLenPdf::15                      3                       # What read queue length does an incoming req see
system.mem_ctrls.rdQLenPdf::16                      2                       # What read queue length does an incoming req see
system.mem_ctrls.rdQLenPdf::17                      2                       # What read queue length does an incoming req see
system.mem_ctrls.rdQLenPdf::18                      2                       # What read queue length does an incoming req see
system.mem_ctrls.rdQLenPdf::19                      1                       # What read queue length does an incoming req see
system.mem_ctrls.rdQLenPdf::20                      1                       # What read queue length does an incoming req see
system.mem_ctrls.rdQLenPdf::21                      0                       # What read queue length does an incoming req see
system.mem_ctrls.rdQLenPdf::22                      0                       # What read queue length does an incoming req see
system.mem_ctrls.rdQLenPdf::23                      0                       # What read queue length does an incoming req see
system.mem_ctrls.rdQLenPdf::24                      0                       # What read queue length does an incoming req see
system.mem_ctrls.rdQLenPdf::25                      0                       # What read queue length does an incoming req see
system.mem_ctrls.rdQLenPdf::26                      0                       # What read queue length does an incoming req see
system.mem_ctrls.rdQLenPdf::27                      0                       # What read queue length does an incoming req see
system.mem_ctrls.rdQLenPdf::28                      0                       # What read queue length does an incoming req see
system.mem_ctrls.rdQLenPdf::29                      0                       # What read queue length does an incoming req see
system.mem_ctrls.rdQLenPdf::30                      0                       # What read queue length does an incoming req see
system.mem_ctrls.rdQLenPdf::31                      0                       # What read queue length does an incoming req see
system.mem_ctrls.wrQLenPdf::0                       1                       # What write queue length does an incoming req see
system.mem_ctrls.wrQLenPdf::1                       1                       # What write queue length does an incoming req see
system.mem_ctrls.wrQLenPdf::2                       1                       # What write queue length does an incoming req see
system.mem_ctrls.wrQLenPdf::3                       1                       # What write queue length does an incoming req see
system.mem_ctrls.wrQLenPdf::4                       1                       # What write queue length does an incoming req see
system.mem_ctrls.wrQLenPdf::5                       1                       # What write queue length does an incoming req see
system.mem_ctrls.wrQLenPdf::6                       1                       # What write queue length does an incoming req see
system.mem_ctrls.wrQLenPdf::7                       1                       # What write queue length does an incoming req see
system.mem_ctrls.wrQLenPdf::8                       1                       # What write queue length does an incoming req see
system.mem_ctrls.wrQLenPdf::9                       1                       # What write queue length does an incoming req see
system.mem_ctrls.wrQLenPdf::10                      1                       # What write queue length does an incoming req see
system.mem_ctrls.wrQLenPdf::11                      1                       # What write queue length does an incoming req see
system.mem_ctrls.wrQLenPdf::12                      1                       # What write queue length does an incoming req see
system.mem_ctrls.wrQLenPdf::13                      1                       # What write queue length does an incoming req see
system.mem_ctrls.wrQLenPdf::14                      1                       # What write queue length does an incoming req see
system.mem_ctrls.wrQLenPdf::15                   5927                       # What write queue length does an incoming req see
system.mem_ctrls.wrQLenPdf::16                   6716                       # What write queue length does an incoming req see
system.mem_ctrls.wrQLenPdf::17                  29809                       # What write queue length does an incoming req see
system.mem_ctrls.wrQLenPdf::18                  30586                       # What write queue length does an incoming req see
system.mem_ctrls.wrQLenPdf::19                  30728                       # What write queue length does an incoming req see
system.mem_ctrls.wrQLenPdf::20                  30931                       # What write queue length does an incoming req see
system.mem_ctrls.wrQLenPdf::21                  31189                       # What write queue length does an incoming req see
system.mem_ctrls.wrQLenPdf::22                  31627                       # What write queue length does an incoming req see
system.mem_ctrls.wrQLenPdf::23                  31723                       # What write queue length does an incoming req see
system.mem_ctrls.wrQLenPdf::24                  32141                       # What write queue length does an incoming req see
system.mem_ctrls.wrQLenPdf::25                  32712                       # What write queue length does an incoming req see
system.mem_ctrls.wrQLenPdf::26                  33173                       # What write queue length does an incoming req see
system.mem_ctrls.wrQLenPdf::27                  32996                       # What write queue length does an incoming req see
system.mem_ctrls.wrQLenPdf::28                  33214                       # What write queue length does an incoming req see
system.mem_ctrls.wrQLenPdf::29                  33690                       # What write queue length does an incoming req see
system.mem_ctrls.wrQLenPdf::30                  33170                       # What write queue length does an incoming req see
system.mem_ctrls.wrQLenPdf::31                  32906                       # What write queue length does an incoming req see
system.mem_ctrls.wrQLenPdf::32                  33085                       # What write queue length does an incoming req see
system.mem_ctrls.wrQLenPdf::33                   1567                       # What write queue length does an incoming req see
system.mem_ctrls.wrQLenPdf::34                   1527                       # What write queue length does an incoming req see
system.mem_ctrls.wrQLenPdf::35                   1173                       # What write queue length does an incoming req see
system.mem_ctrls.wrQLenPdf::36                    943                       # What write queue length does an incoming req see
system.mem_ctrls.wrQLenPdf::37                    982                       # What write queue length does an incoming req see
system.mem_ctrls.wrQLenPdf::38                    708                       # What write queue length does an incoming req see
system.mem_ctrls.wrQLenPdf::39                    580                       # What write queue length does an incoming req see
system.mem_ctrls.wrQLenPdf::40                    557                       # What write queue length does an incoming req see
system.mem_ctrls.wrQLenPdf::41                    448                       # What write queue length does an incoming req see
system.mem_ctrls.wrQLenPdf::42                    415                       # What write queue length does an incoming req see
system.mem_ctrls.wrQLenPdf::43                    391                       # What write queue length does an incoming req see
system.mem_ctrls.wrQLenPdf::44                    383                       # What write queue length does an incoming req see
system.mem_ctrls.wrQLenPdf::45                    294                       # What write queue length does an incoming req see
system.mem_ctrls.wrQLenPdf::46                    342                       # What write queue length does an incoming req see
system.mem_ctrls.wrQLenPdf::47                    354                       # What write queue length does an incoming req see
system.mem_ctrls.wrQLenPdf::48                    306                       # What write queue length does an incoming req see
system.mem_ctrls.wrQLenPdf::49                    311                       # What write queue length does an incoming req see
system.mem_ctrls.wrQLenPdf::50                    293                       # What write queue length does an incoming req see
system.mem_ctrls.wrQLenPdf::51                    291                       # What write queue length does an incoming req see
system.mem_ctrls.wrQLenPdf::52                    306                       # What write queue length does an incoming req see
system.mem_ctrls.wrQLenPdf::53                    259                       # What write queue length does an incoming req see
system.mem_ctrls.wrQLenPdf::54                    218                       # What write queue length does an incoming req see
system.mem_ctrls.wrQLenPdf::55                    197                       # What write queue length does an incoming req see
system.mem_ctrls.wrQLenPdf::56                    160                       # What write queue length does an incoming req see
system.mem_ctrls.wrQLenPdf::57                    165                       # What write queue length does an incoming req see
system.mem_ctrls.wrQLenPdf::58                    190                       # What write queue length does an incoming req see
system.mem_ctrls.wrQLenPdf::59                    168                       # What write queue length does an incoming req see
system.mem_ctrls.wrQLenPdf::60                    135                       # What write queue length does an incoming req see
system.mem_ctrls.wrQLenPdf::61                    121                       # What write queue length does an incoming req see
system.mem_ctrls.wrQLenPdf::62                    125                       # What write queue length does an incoming req see
system.mem_ctrls.wrQLenPdf::63                    129                       # What write queue length does an incoming req see
system.mem_ctrls.bytesPerActivate::samples       839582                       # Bytes accessed per row activation
system.mem_ctrls.bytesPerActivate::mean    313.097213                       # Bytes accessed per row activation
system.mem_ctrls.bytesPerActivate::gmean   180.575897                       # Bytes accessed per row activation
system.mem_ctrls.bytesPerActivate::stdev   339.334056                       # Bytes accessed per row activation
system.mem_ctrls.bytesPerActivate::0-127       315514     37.58%     37.58% # Bytes accessed per row activation
system.mem_ctrls.bytesPerActivate::128-255       215011     25.61%     63.19% # Bytes accessed per row activation
system.mem_ctrls.bytesPerActivate::256-383        67544      8.04%     71.23% # Bytes accessed per row activation
system.mem_ctrls.bytesPerActivate::384-511        43187      5.14%     76.38% # Bytes accessed per row activation
system.mem_ctrls.bytesPerActivate::512-639        37738      4.49%     80.87% # Bytes accessed per row activation
system.mem_ctrls.bytesPerActivate::640-767        18301      2.18%     83.05% # Bytes accessed per row activation
system.mem_ctrls.bytesPerActivate::768-895        16473      1.96%     85.01% # Bytes accessed per row activation
system.mem_ctrls.bytesPerActivate::896-1023        10627      1.27%     86.28% # Bytes accessed per row activation
system.mem_ctrls.bytesPerActivate::1024-1151       115187     13.72%    100.00% # Bytes accessed per row activation
system.mem_ctrls.bytesPerActivate::total       839582                       # Bytes accessed per row activation
system.mem_ctrls.rdPerTurnAround::samples        32171                       # Reads before turning the bus around for writes
system.mem_ctrls.rdPerTurnAround::mean     110.876783                       # Reads before turning the bus around for writes
system.mem_ctrls.rdPerTurnAround::stdev   5746.375862                       # Reads before turning the bus around for writes
system.mem_ctrls.rdPerTurnAround::0-32767        32170    100.00%    100.00% # Reads before turning the bus around for writes
system.mem_ctrls.rdPerTurnAround::1.01581e+06-1.04858e+06            1      0.00%    100.00% # Reads before turning the bus around for writes
system.mem_ctrls.rdPerTurnAround::total         32171                       # Reads before turning the bus around for writes
system.mem_ctrls.wrPerTurnAround::samples        32171                       # Writes before turning the bus around for reads
system.mem_ctrls.wrPerTurnAround::mean      16.796121                       # Writes before turning the bus around for reads
system.mem_ctrls.wrPerTurnAround::gmean     16.612796                       # Writes before turning the bus around for reads
system.mem_ctrls.wrPerTurnAround::stdev      4.542555                       # Writes before turning the bus around for reads
system.mem_ctrls.wrPerTurnAround::16-23         31740     98.66%     98.66% # Writes before turning the bus around for reads
system.mem_ctrls.wrPerTurnAround::24-31           230      0.71%     99.38% # Writes before turning the bus around for reads
system.mem_ctrls.wrPerTurnAround::32-39            97      0.30%     99.68% # Writes before turning the bus around for reads
system.mem_ctrls.wrPerTurnAround::40-47            20      0.06%     99.74% # Writes before turning the bus around for reads
system.mem_ctrls.wrPerTurnAround::48-55            18      0.06%     99.79% # Writes before turning the bus around for reads
system.mem_ctrls.wrPerTurnAround::56-63             9      0.03%     99.82% # Writes before turning the bus around for reads
system.mem_ctrls.wrPerTurnAround::64-71             4      0.01%     99.84% # Writes before turning the bus around for reads
system.mem_ctrls.wrPerTurnAround::72-79             3      0.01%     99.84% # Writes before turning the bus around for reads
system.mem_ctrls.wrPerTurnAround::80-87             8      0.02%     99.87% # Writes before turning the bus around for reads
system.mem_ctrls.wrPerTurnAround::88-95             4      0.01%     99.88% # Writes before turning the bus around for reads
system.mem_ctrls.wrPerTurnAround::96-103           29      0.09%     99.97% # Writes before turning the bus around for reads
system.mem_ctrls.wrPerTurnAround::128-135            3      0.01%     99.98% # Writes before turning the bus around for reads
system.mem_ctrls.wrPerTurnAround::168-175            2      0.01%     99.99% # Writes before turning the bus around for reads
system.mem_ctrls.wrPerTurnAround::192-199            1      0.00%     99.99% # Writes before turning the bus around for reads
system.mem_ctrls.wrPerTurnAround::224-231            1      0.00%     99.99% # Writes before turning the bus around for reads
system.mem_ctrls.wrPerTurnAround::232-239            1      0.00%    100.00% # Writes before turning the bus around for reads
system.mem_ctrls.wrPerTurnAround::256-263            1      0.00%    100.00% # Writes before turning the bus around for reads
system.mem_ctrls.wrPerTurnAround::total         32171                       # Writes before turning the bus around for reads
system.mem_ctrls.totQLat                  49523735278                       # Total ticks spent queuing
system.mem_ctrls.totMemAccLat            116405566528                       # Total ticks spent from burst creation until serviced by the DRAM
system.mem_ctrls.totBusLat                17835155000                       # Total ticks spent in databus transfers
system.mem_ctrls.avgQLat                     13883.74                       # Average queueing delay per DRAM burst
system.mem_ctrls.avgBusLat                    5000.00                       # Average bus latency per DRAM burst
system.mem_ctrls.avgMemAccLat                32633.74                       # Average memory access latency per DRAM burst
system.mem_ctrls.avgRdBW                        86.65                       # Average DRAM read bandwidth in MiByte/s
system.mem_ctrls.avgWrBW                        13.13                       # Average achieved write bandwidth in MiByte/s
system.mem_ctrls.avgRdBWSys                     87.06                       # Average system read bandwidth in MiByte/s
system.mem_ctrls.avgWrBWSys                     13.13                       # Average system write bandwidth in MiByte/s
system.mem_ctrls.peakBW                      12800.00                       # Theoretical peak bandwidth in MiByte/s
system.mem_ctrls.busUtil                         0.78                       # Data bus utilization in percentage
system.mem_ctrls.busUtilRead                     0.68                       # Data bus utilization in percentage for reads
system.mem_ctrls.busUtilWrite                    0.10                       # Data bus utilization in percentage for writes
system.mem_ctrls.avgRdQLen                       1.00                       # Average read queue length when enqueuing
system.mem_ctrls.avgWrQLen                      25.51                       # Average write queue length when enqueuing
system.mem_ctrls.readRowHits                  2869007                       # Number of row buffer hits during reads
system.mem_ctrls.writeRowHits                  398783                       # Number of row buffer hits during writes
system.mem_ctrls.readRowHitRate                 80.43                       # Row buffer hit rate for reads
system.mem_ctrls.writeRowHitRate                73.80                       # Row buffer hit rate for writes
system.mem_ctrls.avgGap                     638783.52                       # Average gap between requests
system.mem_ctrls.pageHitRate                    79.56                       # Row buffer hit rate, read and write combined
system.mem_ctrls_0.actEnergy               2351816040                       # Energy for activate commands per rank (pJ)
system.mem_ctrls_0.preEnergy               1249997100                       # Energy for precharge commands per rank (pJ)
system.mem_ctrls_0.readEnergy             11065207860                       # Energy for read commands per rank (pJ)
system.mem_ctrls_0.writeEnergy             1217236140                       # Energy for write commands per rank (pJ)
system.mem_ctrls_0.refreshEnergy         31106930400.000004                       # Energy for refresh commands per rank (pJ)
system.mem_ctrls_0.actBackEnergy          35108187840                       # Energy for active background per rank (pJ)
system.mem_ctrls_0.preBackEnergy           1153385760                       # Energy for precharge background per rank (pJ)
system.mem_ctrls_0.actPowerDownEnergy    113552297490                       # Energy for active power-down per rank (pJ)
system.mem_ctrls_0.prePowerDownEnergy     19032246720                       # Energy for precharge power-down per rank (pJ)
system.mem_ctrls_0.selfRefreshEnergy     542620372200                       # Energy for self refresh per rank (pJ)
system.mem_ctrls_0.totalEnergy           758462785290                       # Total energy per rank (pJ)
system.mem_ctrls_0.averagePower            287.887314                       # Core power per rank (mW)
system.mem_ctrls_0.totalIdleTime         2554576080750                       # Total Idle time Per DRAM Rank
system.mem_ctrls_0.memoryStateTime::IDLE   1238744750                       # Time in different power states
system.mem_ctrls_0.memoryStateTime::REF   13172010000                       # Time in different power states
system.mem_ctrls_0.memoryStateTime::SREF 2255994250500                       # Time in different power states
system.mem_ctrls_0.memoryStateTime::PRE_PDN  49564167000                       # Time in different power states
system.mem_ctrls_0.memoryStateTime::ACT   65594996250                       # Time in different power states
system.mem_ctrls_0.memoryStateTime::ACT_PDN 249018001000                       # Time in different power states
system.mem_ctrls_1.actEnergy               3642849420                       # Energy for activate commands per rank (pJ)
system.mem_ctrls_1.preEnergy               1936216590                       # Energy for precharge commands per rank (pJ)
system.mem_ctrls_1.readEnergy             14403393480                       # Energy for read commands per rank (pJ)
system.mem_ctrls_1.writeEnergy             1603380420                       # Energy for write commands per rank (pJ)
system.mem_ctrls_1.refreshEnergy         30644721120.000004                       # Energy for refresh commands per rank (pJ)
system.mem_ctrls_1.actBackEnergy          40372507770                       # Energy for active background per rank (pJ)
system.mem_ctrls_1.preBackEnergy            993610560                       # Energy for precharge background per rank (pJ)
system.mem_ctrls_1.actPowerDownEnergy    116750579460                       # Energy for active power-down per rank (pJ)
system.mem_ctrls_1.prePowerDownEnergy     11836326720                       # Energy for precharge power-down per rank (pJ)
system.mem_ctrls_1.selfRefreshEnergy     542363306700                       # Energy for self refresh per rank (pJ)
system.mem_ctrls_1.totalEnergy           764549122440                       # Total energy per rank (pJ)
system.mem_ctrls_1.averagePower            290.197486                       # Core power per rank (mW)
system.mem_ctrls_1.totalIdleTime         2543450513000                       # Total Idle time Per DRAM Rank
system.mem_ctrls_1.memoryStateTime::IDLE    805312000                       # Time in different power states
system.mem_ctrls_1.memoryStateTime::REF   12972176000                       # Time in different power states
system.mem_ctrls_1.memoryStateTime::SREF 2256597791000                       # Time in different power states
system.mem_ctrls_1.memoryStateTime::PRE_PDN  30824995250                       # Time in different power states
system.mem_ctrls_1.memoryStateTime::ACT   77354109500                       # Time in different power states
system.mem_ctrls_1.memoryStateTime::ACT_PDN 256027785750                       # Time in different power states
system.pwrStateResidencyTicks::UNDEFINED 2634582169500                       # Cumulative time (in ticks) in various power states
system.bridge.pwrStateResidencyTicks::UNDEFINED 2634582169500                       # Cumulative time (in ticks) in various power states
system.cpu_voltage_domain.voltage                   1                       # Voltage in Volts
system.cpu_clk_domain.clock                       500                       # Clock period in ticks
system.cpu.dtb.fetch_hits                           0                       # ITB hits
system.cpu.dtb.fetch_misses                         0                       # ITB misses
system.cpu.dtb.fetch_acv                            0                       # ITB acv
system.cpu.dtb.fetch_accesses                       0                       # ITB accesses
system.cpu.dtb.read_hits                     17001442                       # DTB read hits
system.cpu.dtb.read_misses                      12434                       # DTB read misses
system.cpu.dtb.read_acv                            98                       # DTB read access violations
system.cpu.dtb.read_accesses                   817021                       # DTB read accesses
system.cpu.dtb.write_hits                     8887069                       # DTB write hits
system.cpu.dtb.write_misses                      1307                       # DTB write misses
system.cpu.dtb.write_acv                          169                       # DTB write access violations
system.cpu.dtb.write_accesses                  324494                       # DTB write accesses
system.cpu.dtb.data_hits                     25888511                       # DTB hits
system.cpu.dtb.data_misses                      13741                       # DTB misses
system.cpu.dtb.data_acv                           267                       # DTB access violations
system.cpu.dtb.data_accesses                  1141515                       # DTB accesses
system.cpu.itb.fetch_hits                     5676805                       # ITB hits
system.cpu.itb.fetch_misses                      6040                       # ITB misses
system.cpu.itb.fetch_acv                            1                       # ITB acv
system.cpu.itb.fetch_accesses                 5682845                       # ITB accesses
system.cpu.itb.read_hits                            0                       # DTB read hits
system.cpu.itb.read_misses                          0                       # DTB read misses
system.cpu.itb.read_acv                             0                       # DTB read access violations
system.cpu.itb.read_accesses                        0                       # DTB read accesses
system.cpu.itb.write_hits                           0                       # DTB write hits
system.cpu.itb.write_misses                         0                       # DTB write misses
system.cpu.itb.write_acv                            0                       # DTB write access violations
system.cpu.itb.write_accesses                       0                       # DTB write accesses
system.cpu.itb.data_hits                            0                       # DTB hits
system.cpu.itb.data_misses                          0                       # DTB misses
system.cpu.itb.data_acv                             0                       # DTB access violations
system.cpu.itb.data_accesses                        0                       # DTB accesses
system.cpu.numPwrStateTransitions               14150                       # Number of power state transitions
system.cpu.pwrStateClkGateDist::samples          7075                       # Distribution of time spent in the clock gated state
system.cpu.pwrStateClkGateDist::mean     310465432.650177                       # Distribution of time spent in the clock gated state
system.cpu.pwrStateClkGateDist::stdev    452192597.563940                       # Distribution of time spent in the clock gated state
system.cpu.pwrStateClkGateDist::1000-5e+10         7075    100.00%    100.00% # Distribution of time spent in the clock gated state
system.cpu.pwrStateClkGateDist::min_value       108000                       # Distribution of time spent in the clock gated state
system.cpu.pwrStateClkGateDist::max_value   2000000000                       # Distribution of time spent in the clock gated state
system.cpu.pwrStateClkGateDist::total            7075                       # Distribution of time spent in the clock gated state
system.cpu.pwrStateResidencyTicks::ON    438039233500                       # Cumulative time (in ticks) in various power states
system.cpu.pwrStateResidencyTicks::CLK_GATED 2196542936000                       # Cumulative time (in ticks) in various power states
system.cpu.numCycles                       5269164339                       # number of cpu cycles simulated
system.cpu.numWorkItemsStarted                      0                       # number of work items this cpu started
system.cpu.numWorkItemsCompleted                    0                       # number of work items this cpu completed
system.cpu.kern.inst.arm                            0                       # number of arm instructions executed
system.cpu.kern.inst.quiesce                     7075                       # number of quiesce instructions executed
system.cpu.kern.callpal::cserve                     1      0.00%      0.00% # number of callpals executed
system.cpu.kern.callpal::wrmces                     1      0.00%      0.00% # number of callpals executed
system.cpu.kern.callpal::wrfen                      1      0.00%      0.00% # number of callpals executed
system.cpu.kern.callpal::wrvptptr                   1      0.00%      0.00% # number of callpals executed
system.cpu.kern.callpal::swpctx                  4491      2.08%      2.08% # number of callpals executed
system.cpu.kern.callpal::tbi                       64      0.03%      2.11% # number of callpals executed
system.cpu.kern.callpal::wrent                      7      0.00%      2.12% # number of callpals executed
system.cpu.kern.callpal::swpipl                198243     91.85%     93.96% # number of callpals executed
system.cpu.kern.callpal::rdps                    6037      2.80%     96.76% # number of callpals executed
system.cpu.kern.callpal::wrkgp                      1      0.00%     96.76% # number of callpals executed
system.cpu.kern.callpal::wrusp                      8      0.00%     96.76% # number of callpals executed
system.cpu.kern.callpal::rdusp                     10      0.00%     96.77% # number of callpals executed
system.cpu.kern.callpal::whami                      2      0.00%     96.77% # number of callpals executed
system.cpu.kern.callpal::rti                     6182      2.86%     99.63% # number of callpals executed
system.cpu.kern.callpal::callsys                  559      0.26%     99.89% # number of callpals executed
system.cpu.kern.callpal::imb                      235      0.11%    100.00% # number of callpals executed
system.cpu.kern.callpal::total                 215843                       # number of callpals executed
system.cpu.kern.inst.hwrei                     238592                       # number of hwrei instructions executed
system.cpu.kern.mode_switch::kernel              6872                       # number of protection mode switches
system.cpu.kern.mode_switch::user                1967                       # number of protection mode switches
system.cpu.kern.mode_switch::idle                2307                       # number of protection mode switches
system.cpu.kern.mode_good::kernel                2029                      
system.cpu.kern.mode_good::user                  1967                      
system.cpu.kern.mode_good::idle                    62                      
system.cpu.kern.mode_switch_good::kernel     0.295256                       # fraction of useful protection mode switches
system.cpu.kern.mode_switch_good::user              1                       # fraction of useful protection mode switches
system.cpu.kern.mode_switch_good::idle       0.026875                       # fraction of useful protection mode switches
system.cpu.kern.mode_switch_good::total      0.364077                       # fraction of useful protection mode switches
system.cpu.kern.mode_ticks::kernel       304712277000     11.57%     11.57% # number of ticks spent at the given mode
system.cpu.kern.mode_ticks::user           9818442500      0.37%     11.94% # number of ticks spent at the given mode
system.cpu.kern.mode_ticks::idle         2320048792000     88.06%    100.00% # number of ticks spent at the given mode
system.cpu.kern.swap_context                     4492                       # number of times the context was actually changed
system.cpu.kern.ipl_count::0                    82921     40.03%     40.03% # number of times we switched to this ipl
system.cpu.kern.ipl_count::21                     117      0.06%     40.09% # number of times we switched to this ipl
system.cpu.kern.ipl_count::22                    2581      1.25%     41.34% # number of times we switched to this ipl
system.cpu.kern.ipl_count::31                  121505     58.66%    100.00% # number of times we switched to this ipl
system.cpu.kern.ipl_count::total               207124                       # number of times we switched to this ipl
system.cpu.kern.ipl_good::0                     81384     49.18%     49.18% # number of times we switched to this ipl from a different ipl
system.cpu.kern.ipl_good::21                      117      0.07%     49.26% # number of times we switched to this ipl from a different ipl
system.cpu.kern.ipl_good::22                     2581      1.56%     50.82% # number of times we switched to this ipl from a different ipl
system.cpu.kern.ipl_good::31                    81384     49.18%    100.00% # number of times we switched to this ipl from a different ipl
system.cpu.kern.ipl_good::total                165466                       # number of times we switched to this ipl from a different ipl
system.cpu.kern.ipl_ticks::0             2456239138000     93.23%     93.23% # number of cycles we spent at this ipl
system.cpu.kern.ipl_ticks::21               179798500      0.01%     93.24% # number of cycles we spent at this ipl
system.cpu.kern.ipl_ticks::22              1464542000      0.06%     93.29% # number of cycles we spent at this ipl
system.cpu.kern.ipl_ticks::31            176696035000      6.71%    100.00% # number of cycles we spent at this ipl
system.cpu.kern.ipl_ticks::total         2634579513500                       # number of cycles we spent at this ipl
system.cpu.kern.ipl_used::0                  0.981464                       # fraction of swpipl calls that actually changed the ipl
system.cpu.kern.ipl_used::21                        1                       # fraction of swpipl calls that actually changed the ipl
system.cpu.kern.ipl_used::22                        1                       # fraction of swpipl calls that actually changed the ipl
system.cpu.kern.ipl_used::31                 0.669800                       # fraction of swpipl calls that actually changed the ipl
system.cpu.kern.ipl_used::total              0.798874                       # fraction of swpipl calls that actually changed the ipl
system.cpu.committedInsts                    97415552                       # Number of instructions committed
system.cpu.committedOps                      97415552                       # Number of ops (including micro ops) committed
system.cpu.num_int_alu_accesses              94411443                       # Number of integer alu accesses
system.cpu.num_fp_alu_accesses                 425179                       # Number of float alu accesses
system.cpu.num_vec_alu_accesses                     0                       # Number of vector alu accesses
system.cpu.num_func_calls                     2917612                       # number of times a function call or return occured
system.cpu.num_conditional_control_insts     12574096                       # number of instructions that are conditional controls
system.cpu.num_int_insts                     94411443                       # number of integer instructions
system.cpu.num_fp_insts                        425179                       # number of float instructions
system.cpu.num_vec_insts                            0                       # number of vector instructions
system.cpu.num_int_register_reads           129728188                       # number of times the integer registers were read
system.cpu.num_int_register_writes           71742925                       # number of times the integer registers were written
system.cpu.num_fp_register_reads               177224                       # number of times the floating registers were read
system.cpu.num_fp_register_writes              180201                       # number of times the floating registers were written
system.cpu.num_vec_register_reads                   0                       # number of times the vector registers were read
system.cpu.num_vec_register_writes                  0                       # number of times the vector registers were written
system.cpu.num_mem_refs                      25947321                       # number of memory refs
system.cpu.num_load_insts                    17042720                       # Number of load instructions
system.cpu.num_store_insts                    8904601                       # Number of store instructions
system.cpu.num_idle_cycles               4393085871.998333                       # Number of idle cycles
system.cpu.num_busy_cycles               876078467.001667                       # Number of busy cycles
system.cpu.not_idle_fraction                 0.166265                       # Percentage of non-idle cycles
system.cpu.idle_fraction                     0.833735                       # Percentage of idle cycles
system.cpu.Branches                          16106636                       # Number of branches fetched
system.cpu.op_class::No_OpClass               1595144      1.64%      1.64% # Class of executed instruction
system.cpu.op_class::IntAlu                  67959743     69.75%     71.39% # Class of executed instruction
system.cpu.op_class::IntMult                   186757      0.19%     71.58% # Class of executed instruction
system.cpu.op_class::IntDiv                         0      0.00%     71.58% # Class of executed instruction
system.cpu.op_class::FloatAdd                  117388      0.12%     71.70% # Class of executed instruction
system.cpu.op_class::FloatCmp                       0      0.00%     71.70% # Class of executed instruction
system.cpu.op_class::FloatCvt                       0      0.00%     71.70% # Class of executed instruction
system.cpu.op_class::FloatMult                      0      0.00%     71.70% # Class of executed instruction
system.cpu.op_class::FloatMultAcc                   0      0.00%     71.70% # Class of executed instruction
system.cpu.op_class::FloatDiv                    4179      0.00%     71.71% # Class of executed instruction
system.cpu.op_class::FloatMisc                      0      0.00%     71.71% # Class of executed instruction
system.cpu.op_class::FloatSqrt                      0      0.00%     71.71% # Class of executed instruction
system.cpu.op_class::SimdAdd                        0      0.00%     71.71% # Class of executed instruction
system.cpu.op_class::SimdAddAcc                     0      0.00%     71.71% # Class of executed instruction
system.cpu.op_class::SimdAlu                        0      0.00%     71.71% # Class of executed instruction
system.cpu.op_class::SimdCmp                        0      0.00%     71.71% # Class of executed instruction
system.cpu.op_class::SimdCvt                        0      0.00%     71.71% # Class of executed instruction
system.cpu.op_class::SimdMisc                       0      0.00%     71.71% # Class of executed instruction
system.cpu.op_class::SimdMult                       0      0.00%     71.71% # Class of executed instruction
system.cpu.op_class::SimdMultAcc                    0      0.00%     71.71% # Class of executed instruction
system.cpu.op_class::SimdShift                      0      0.00%     71.71% # Class of executed instruction
system.cpu.op_class::SimdShiftAcc                   0      0.00%     71.71% # Class of executed instruction
system.cpu.op_class::SimdSqrt                       0      0.00%     71.71% # Class of executed instruction
system.cpu.op_class::SimdFloatAdd                   0      0.00%     71.71% # Class of executed instruction
system.cpu.op_class::SimdFloatAlu                   0      0.00%     71.71% # Class of executed instruction
system.cpu.op_class::SimdFloatCmp                   0      0.00%     71.71% # Class of executed instruction
system.cpu.op_class::SimdFloatCvt                   0      0.00%     71.71% # Class of executed instruction
system.cpu.op_class::SimdFloatDiv                   0      0.00%     71.71% # Class of executed instruction
system.cpu.op_class::SimdFloatMisc                  0      0.00%     71.71% # Class of executed instruction
system.cpu.op_class::SimdFloatMult                  0      0.00%     71.71% # Class of executed instruction
system.cpu.op_class::SimdFloatMultAcc               0      0.00%     71.71% # Class of executed instruction
system.cpu.op_class::SimdFloatSqrt                  0      0.00%     71.71% # Class of executed instruction
system.cpu.op_class::MemRead                 17344554     17.80%     89.51% # Class of executed instruction
system.cpu.op_class::MemWrite                 8830738      9.06%     98.57% # Class of executed instruction
system.cpu.op_class::FloatMemRead              155388      0.16%     98.73% # Class of executed instruction
system.cpu.op_class::FloatMemWrite             148224      0.15%     98.88% # Class of executed instruction
system.cpu.op_class::IprAccess                1087445      1.12%    100.00% # Class of executed instruction
system.cpu.op_class::InstPrefetch                   0      0.00%    100.00% # Class of executed instruction
system.cpu.op_class::total                   97429560                       # Class of executed instruction
system.cpu.dcache.tags.pwrStateResidencyTicks::UNDEFINED 2634582169500                       # Cumulative time (in ticks) in various power states
system.cpu.dcache.tags.replacements           2891945                       # number of replacements
system.cpu.dcache.tags.tagsinuse          1023.951625                       # Cycle average of tags in use
system.cpu.dcache.tags.total_refs            22974245                       # Total number of references to valid blocks.
system.cpu.dcache.tags.sampled_refs           2891945                       # Sample count of references to valid blocks.
system.cpu.dcache.tags.avg_refs              7.944219                       # Average number of references to valid blocks.
system.cpu.dcache.tags.warmup_cycle         181751500                       # Cycle when the warmup percentage was hit.
system.cpu.dcache.tags.occ_blocks::cpu.data  1023.951625                       # Average occupied blocks per requestor
system.cpu.dcache.tags.occ_percent::cpu.data     0.999953                       # Average percentage of cache occupancy
system.cpu.dcache.tags.occ_percent::total     0.999953                       # Average percentage of cache occupancy
system.cpu.dcache.tags.occ_task_id_blocks::1024         1024                       # Occupied blocks per task id
system.cpu.dcache.tags.age_task_id_blocks_1024::0           42                       # Occupied blocks per task id
system.cpu.dcache.tags.age_task_id_blocks_1024::1          677                       # Occupied blocks per task id
system.cpu.dcache.tags.age_task_id_blocks_1024::2          283                       # Occupied blocks per task id
system.cpu.dcache.tags.age_task_id_blocks_1024::3           22                       # Occupied blocks per task id
system.cpu.dcache.tags.occ_task_id_percent::1024            1                       # Percentage of cache occupancy per task id
system.cpu.dcache.tags.tag_accesses         210171428                       # Number of tag accesses
system.cpu.dcache.tags.data_accesses        210171428                       # Number of data accesses
system.cpu.dcache.pwrStateResidencyTicks::UNDEFINED 2634582169500                       # Cumulative time (in ticks) in various power states
system.cpu.dcache.ReadReq_hits::cpu.data     14220902                       # number of ReadReq hits
system.cpu.dcache.ReadReq_hits::total        14220902                       # number of ReadReq hits
system.cpu.dcache.WriteReq_hits::cpu.data      8180107                       # number of WriteReq hits
system.cpu.dcache.WriteReq_hits::total        8180107                       # number of WriteReq hits
system.cpu.dcache.LoadLockedReq_hits::cpu.data       300007                       # number of LoadLockedReq hits
system.cpu.dcache.LoadLockedReq_hits::total       300007                       # number of LoadLockedReq hits
system.cpu.dcache.StoreCondReq_hits::cpu.data       315687                       # number of StoreCondReq hits
system.cpu.dcache.StoreCondReq_hits::total       315687                       # number of StoreCondReq hits
system.cpu.dcache.demand_hits::cpu.data      22401009                       # number of demand (read+write) hits
system.cpu.dcache.demand_hits::total         22401009                       # number of demand (read+write) hits
system.cpu.dcache.overall_hits::cpu.data     22401009                       # number of overall hits
system.cpu.dcache.overall_hits::total        22401009                       # number of overall hits
system.cpu.dcache.ReadReq_misses::cpu.data      2485543                       # number of ReadReq misses
system.cpu.dcache.ReadReq_misses::total       2485543                       # number of ReadReq misses
system.cpu.dcache.WriteReq_misses::cpu.data       390789                       # number of WriteReq misses
system.cpu.dcache.WriteReq_misses::total       390789                       # number of WriteReq misses
system.cpu.dcache.LoadLockedReq_misses::cpu.data        16763                       # number of LoadLockedReq misses
system.cpu.dcache.LoadLockedReq_misses::total        16763                       # number of LoadLockedReq misses
system.cpu.dcache.demand_misses::cpu.data      2876332                       # number of demand (read+write) misses
system.cpu.dcache.demand_misses::total        2876332                       # number of demand (read+write) misses
system.cpu.dcache.overall_misses::cpu.data      2876332                       # number of overall misses
system.cpu.dcache.overall_misses::total       2876332                       # number of overall misses
system.cpu.dcache.ReadReq_miss_latency::cpu.data 205525380000                       # number of ReadReq miss cycles
system.cpu.dcache.ReadReq_miss_latency::total 205525380000                       # number of ReadReq miss cycles
system.cpu.dcache.WriteReq_miss_latency::cpu.data  31871800500                       # number of WriteReq miss cycles
system.cpu.dcache.WriteReq_miss_latency::total  31871800500                       # number of WriteReq miss cycles
system.cpu.dcache.LoadLockedReq_miss_latency::cpu.data   1277164500                       # number of LoadLockedReq miss cycles
system.cpu.dcache.LoadLockedReq_miss_latency::total   1277164500                       # number of LoadLockedReq miss cycles
system.cpu.dcache.demand_miss_latency::cpu.data 237397180500                       # number of demand (read+write) miss cycles
system.cpu.dcache.demand_miss_latency::total 237397180500                       # number of demand (read+write) miss cycles
system.cpu.dcache.overall_miss_latency::cpu.data 237397180500                       # number of overall miss cycles
system.cpu.dcache.overall_miss_latency::total 237397180500                       # number of overall miss cycles
system.cpu.dcache.ReadReq_accesses::cpu.data     16706445                       # number of ReadReq accesses(hits+misses)
system.cpu.dcache.ReadReq_accesses::total     16706445                       # number of ReadReq accesses(hits+misses)
system.cpu.dcache.WriteReq_accesses::cpu.data      8570896                       # number of WriteReq accesses(hits+misses)
system.cpu.dcache.WriteReq_accesses::total      8570896                       # number of WriteReq accesses(hits+misses)
system.cpu.dcache.LoadLockedReq_accesses::cpu.data       316770                       # number of LoadLockedReq accesses(hits+misses)
system.cpu.dcache.LoadLockedReq_accesses::total       316770                       # number of LoadLockedReq accesses(hits+misses)
system.cpu.dcache.StoreCondReq_accesses::cpu.data       315687                       # number of StoreCondReq accesses(hits+misses)
system.cpu.dcache.StoreCondReq_accesses::total       315687                       # number of StoreCondReq accesses(hits+misses)
system.cpu.dcache.demand_accesses::cpu.data     25277341                       # number of demand (read+write) accesses
system.cpu.dcache.demand_accesses::total     25277341                       # number of demand (read+write) accesses
system.cpu.dcache.overall_accesses::cpu.data     25277341                       # number of overall (read+write) accesses
system.cpu.dcache.overall_accesses::total     25277341                       # number of overall (read+write) accesses
system.cpu.dcache.ReadReq_miss_rate::cpu.data     0.148777                       # miss rate for ReadReq accesses
system.cpu.dcache.ReadReq_miss_rate::total     0.148777                       # miss rate for ReadReq accesses
system.cpu.dcache.WriteReq_miss_rate::cpu.data     0.045595                       # miss rate for WriteReq accesses
system.cpu.dcache.WriteReq_miss_rate::total     0.045595                       # miss rate for WriteReq accesses
system.cpu.dcache.LoadLockedReq_miss_rate::cpu.data     0.052919                       # miss rate for LoadLockedReq accesses
system.cpu.dcache.LoadLockedReq_miss_rate::total     0.052919                       # miss rate for LoadLockedReq accesses
system.cpu.dcache.demand_miss_rate::cpu.data     0.113791                       # miss rate for demand accesses
system.cpu.dcache.demand_miss_rate::total     0.113791                       # miss rate for demand accesses
system.cpu.dcache.overall_miss_rate::cpu.data     0.113791                       # miss rate for overall accesses
system.cpu.dcache.overall_miss_rate::total     0.113791                       # miss rate for overall accesses
system.cpu.dcache.ReadReq_avg_miss_latency::cpu.data 82688.322029                       # average ReadReq miss latency
system.cpu.dcache.ReadReq_avg_miss_latency::total 82688.322029                       # average ReadReq miss latency
system.cpu.dcache.WriteReq_avg_miss_latency::cpu.data 81557.568151                       # average WriteReq miss latency
system.cpu.dcache.WriteReq_avg_miss_latency::total 81557.568151                       # average WriteReq miss latency
system.cpu.dcache.LoadLockedReq_avg_miss_latency::cpu.data 76189.494721                       # average LoadLockedReq miss latency
system.cpu.dcache.LoadLockedReq_avg_miss_latency::total 76189.494721                       # average LoadLockedReq miss latency
system.cpu.dcache.demand_avg_miss_latency::cpu.data 82534.693665                       # average overall miss latency
system.cpu.dcache.demand_avg_miss_latency::total 82534.693665                       # average overall miss latency
system.cpu.dcache.overall_avg_miss_latency::cpu.data 82534.693665                       # average overall miss latency
system.cpu.dcache.overall_avg_miss_latency::total 82534.693665                       # average overall miss latency
system.cpu.dcache.blocked_cycles::no_mshrs            0                       # number of cycles access was blocked
system.cpu.dcache.blocked_cycles::no_targets            0                       # number of cycles access was blocked
system.cpu.dcache.blocked::no_mshrs                 0                       # number of cycles access was blocked
system.cpu.dcache.blocked::no_targets               0                       # number of cycles access was blocked
system.cpu.dcache.avg_blocked_cycles::no_mshrs          nan                       # average number of cycles each access was blocked
system.cpu.dcache.avg_blocked_cycles::no_targets          nan                       # average number of cycles each access was blocked
system.cpu.dcache.writebacks::writebacks       558391                       # number of writebacks
system.cpu.dcache.writebacks::total            558391                       # number of writebacks
system.cpu.dcache.ReadReq_mshr_misses::cpu.data      2485543                       # number of ReadReq MSHR misses
system.cpu.dcache.ReadReq_mshr_misses::total      2485543                       # number of ReadReq MSHR misses
system.cpu.dcache.WriteReq_mshr_misses::cpu.data       390789                       # number of WriteReq MSHR misses
system.cpu.dcache.WriteReq_mshr_misses::total       390789                       # number of WriteReq MSHR misses
system.cpu.dcache.LoadLockedReq_mshr_misses::cpu.data        16763                       # number of LoadLockedReq MSHR misses
system.cpu.dcache.LoadLockedReq_mshr_misses::total        16763                       # number of LoadLockedReq MSHR misses
system.cpu.dcache.demand_mshr_misses::cpu.data      2876332                       # number of demand (read+write) MSHR misses
system.cpu.dcache.demand_mshr_misses::total      2876332                       # number of demand (read+write) MSHR misses
system.cpu.dcache.overall_mshr_misses::cpu.data      2876332                       # number of overall MSHR misses
system.cpu.dcache.overall_mshr_misses::total      2876332                       # number of overall MSHR misses
system.cpu.dcache.ReadReq_mshr_uncacheable::cpu.data         6973                       # number of ReadReq MSHR uncacheable
system.cpu.dcache.ReadReq_mshr_uncacheable::total         6973                       # number of ReadReq MSHR uncacheable
system.cpu.dcache.WriteReq_mshr_uncacheable::cpu.data        10359                       # number of WriteReq MSHR uncacheable
system.cpu.dcache.WriteReq_mshr_uncacheable::total        10359                       # number of WriteReq MSHR uncacheable
system.cpu.dcache.overall_mshr_uncacheable_misses::cpu.data        17332                       # number of overall MSHR uncacheable misses
system.cpu.dcache.overall_mshr_uncacheable_misses::total        17332                       # number of overall MSHR uncacheable misses
system.cpu.dcache.ReadReq_mshr_miss_latency::cpu.data 203039837000                       # number of ReadReq MSHR miss cycles
system.cpu.dcache.ReadReq_mshr_miss_latency::total 203039837000                       # number of ReadReq MSHR miss cycles
system.cpu.dcache.WriteReq_mshr_miss_latency::cpu.data  31481011500                       # number of WriteReq MSHR miss cycles
system.cpu.dcache.WriteReq_mshr_miss_latency::total  31481011500                       # number of WriteReq MSHR miss cycles
system.cpu.dcache.LoadLockedReq_mshr_miss_latency::cpu.data   1260401500                       # number of LoadLockedReq MSHR miss cycles
system.cpu.dcache.LoadLockedReq_mshr_miss_latency::total   1260401500                       # number of LoadLockedReq MSHR miss cycles
system.cpu.dcache.demand_mshr_miss_latency::cpu.data 234520848500                       # number of demand (read+write) MSHR miss cycles
system.cpu.dcache.demand_mshr_miss_latency::total 234520848500                       # number of demand (read+write) MSHR miss cycles
system.cpu.dcache.overall_mshr_miss_latency::cpu.data 234520848500                       # number of overall MSHR miss cycles
system.cpu.dcache.overall_mshr_miss_latency::total 234520848500                       # number of overall MSHR miss cycles
system.cpu.dcache.ReadReq_mshr_uncacheable_latency::cpu.data   1546224000                       # number of ReadReq MSHR uncacheable cycles
system.cpu.dcache.ReadReq_mshr_uncacheable_latency::total   1546224000                       # number of ReadReq MSHR uncacheable cycles
system.cpu.dcache.overall_mshr_uncacheable_latency::cpu.data   1546224000                       # number of overall MSHR uncacheable cycles
system.cpu.dcache.overall_mshr_uncacheable_latency::total   1546224000                       # number of overall MSHR uncacheable cycles
system.cpu.dcache.ReadReq_mshr_miss_rate::cpu.data     0.148777                       # mshr miss rate for ReadReq accesses
system.cpu.dcache.ReadReq_mshr_miss_rate::total     0.148777                       # mshr miss rate for ReadReq accesses
system.cpu.dcache.WriteReq_mshr_miss_rate::cpu.data     0.045595                       # mshr miss rate for WriteReq accesses
system.cpu.dcache.WriteReq_mshr_miss_rate::total     0.045595                       # mshr miss rate for WriteReq accesses
system.cpu.dcache.LoadLockedReq_mshr_miss_rate::cpu.data     0.052919                       # mshr miss rate for LoadLockedReq accesses
system.cpu.dcache.LoadLockedReq_mshr_miss_rate::total     0.052919                       # mshr miss rate for LoadLockedReq accesses
system.cpu.dcache.demand_mshr_miss_rate::cpu.data     0.113791                       # mshr miss rate for demand accesses
system.cpu.dcache.demand_mshr_miss_rate::total     0.113791                       # mshr miss rate for demand accesses
system.cpu.dcache.overall_mshr_miss_rate::cpu.data     0.113791                       # mshr miss rate for overall accesses
system.cpu.dcache.overall_mshr_miss_rate::total     0.113791                       # mshr miss rate for overall accesses
system.cpu.dcache.ReadReq_avg_mshr_miss_latency::cpu.data 81688.322029                       # average ReadReq mshr miss latency
system.cpu.dcache.ReadReq_avg_mshr_miss_latency::total 81688.322029                       # average ReadReq mshr miss latency
system.cpu.dcache.WriteReq_avg_mshr_miss_latency::cpu.data 80557.568151                       # average WriteReq mshr miss latency
system.cpu.dcache.WriteReq_avg_mshr_miss_latency::total 80557.568151                       # average WriteReq mshr miss latency
system.cpu.dcache.LoadLockedReq_avg_mshr_miss_latency::cpu.data 75189.494721                       # average LoadLockedReq mshr miss latency
system.cpu.dcache.LoadLockedReq_avg_mshr_miss_latency::total 75189.494721                       # average LoadLockedReq mshr miss latency
system.cpu.dcache.demand_avg_mshr_miss_latency::cpu.data 81534.693665                       # average overall mshr miss latency
system.cpu.dcache.demand_avg_mshr_miss_latency::total 81534.693665                       # average overall mshr miss latency
system.cpu.dcache.overall_avg_mshr_miss_latency::cpu.data 81534.693665                       # average overall mshr miss latency
system.cpu.dcache.overall_avg_mshr_miss_latency::total 81534.693665                       # average overall mshr miss latency
system.cpu.dcache.ReadReq_avg_mshr_uncacheable_latency::cpu.data 221744.442851                       # average ReadReq mshr uncacheable latency
system.cpu.dcache.ReadReq_avg_mshr_uncacheable_latency::total 221744.442851                       # average ReadReq mshr uncacheable latency
system.cpu.dcache.overall_avg_mshr_uncacheable_latency::cpu.data 89212.093238                       # average overall mshr uncacheable latency
system.cpu.dcache.overall_avg_mshr_uncacheable_latency::total 89212.093238                       # average overall mshr uncacheable latency
system.cpu.icache.tags.pwrStateResidencyTicks::UNDEFINED 2634582169500                       # Cumulative time (in ticks) in various power states
system.cpu.icache.tags.replacements           1267898                       # number of replacements
system.cpu.icache.tags.tagsinuse           505.178941                       # Cycle average of tags in use
system.cpu.icache.tags.total_refs            95948878                       # Total number of references to valid blocks.
system.cpu.icache.tags.sampled_refs           1267898                       # Sample count of references to valid blocks.
system.cpu.icache.tags.avg_refs             75.675550                       # Average number of references to valid blocks.
system.cpu.icache.tags.warmup_cycle      138150508500                       # Cycle when the warmup percentage was hit.
system.cpu.icache.tags.occ_blocks::cpu.inst   505.178941                       # Average occupied blocks per requestor
system.cpu.icache.tags.occ_percent::cpu.inst     0.986678                       # Average percentage of cache occupancy
system.cpu.icache.tags.occ_percent::total     0.986678                       # Average percentage of cache occupancy
system.cpu.icache.tags.occ_task_id_blocks::1024          512                       # Occupied blocks per task id
system.cpu.icache.tags.age_task_id_blocks_1024::0           39                       # Occupied blocks per task id
system.cpu.icache.tags.age_task_id_blocks_1024::1           29                       # Occupied blocks per task id
system.cpu.icache.tags.age_task_id_blocks_1024::2          227                       # Occupied blocks per task id
system.cpu.icache.tags.age_task_id_blocks_1024::3          217                       # Occupied blocks per task id
system.cpu.icache.tags.occ_task_id_percent::1024            1                       # Percentage of cache occupancy per task id
system.cpu.icache.tags.tag_accesses         196127748                       # Number of tag accesses
system.cpu.icache.tags.data_accesses        196127748                       # Number of data accesses
system.cpu.icache.pwrStateResidencyTicks::UNDEFINED 2634582169500                       # Cumulative time (in ticks) in various power states
system.cpu.icache.ReadReq_hits::cpu.inst     96160935                       # number of ReadReq hits
system.cpu.icache.ReadReq_hits::total        96160935                       # number of ReadReq hits
system.cpu.icache.demand_hits::cpu.inst      96160935                       # number of demand (read+write) hits
system.cpu.icache.demand_hits::total         96160935                       # number of demand (read+write) hits
system.cpu.icache.overall_hits::cpu.inst     96160935                       # number of overall hits
system.cpu.icache.overall_hits::total        96160935                       # number of overall hits
system.cpu.icache.ReadReq_misses::cpu.inst      1268626                       # number of ReadReq misses
system.cpu.icache.ReadReq_misses::total       1268626                       # number of ReadReq misses
system.cpu.icache.demand_misses::cpu.inst      1268626                       # number of demand (read+write) misses
system.cpu.icache.demand_misses::total        1268626                       # number of demand (read+write) misses
system.cpu.icache.overall_misses::cpu.inst      1268626                       # number of overall misses
system.cpu.icache.overall_misses::total       1268626                       # number of overall misses
system.cpu.icache.ReadReq_miss_latency::cpu.inst  76250451500                       # number of ReadReq miss cycles
system.cpu.icache.ReadReq_miss_latency::total  76250451500                       # number of ReadReq miss cycles
system.cpu.icache.demand_miss_latency::cpu.inst  76250451500                       # number of demand (read+write) miss cycles
system.cpu.icache.demand_miss_latency::total  76250451500                       # number of demand (read+write) miss cycles
system.cpu.icache.overall_miss_latency::cpu.inst  76250451500                       # number of overall miss cycles
system.cpu.icache.overall_miss_latency::total  76250451500                       # number of overall miss cycles
system.cpu.icache.ReadReq_accesses::cpu.inst     97429561                       # number of ReadReq accesses(hits+misses)
system.cpu.icache.ReadReq_accesses::total     97429561                       # number of ReadReq accesses(hits+misses)
system.cpu.icache.demand_accesses::cpu.inst     97429561                       # number of demand (read+write) accesses
system.cpu.icache.demand_accesses::total     97429561                       # number of demand (read+write) accesses
system.cpu.icache.overall_accesses::cpu.inst     97429561                       # number of overall (read+write) accesses
system.cpu.icache.overall_accesses::total     97429561                       # number of overall (read+write) accesses
system.cpu.icache.ReadReq_miss_rate::cpu.inst     0.013021                       # miss rate for ReadReq accesses
system.cpu.icache.ReadReq_miss_rate::total     0.013021                       # miss rate for ReadReq accesses
system.cpu.icache.demand_miss_rate::cpu.inst     0.013021                       # miss rate for demand accesses
system.cpu.icache.demand_miss_rate::total     0.013021                       # miss rate for demand accesses
system.cpu.icache.overall_miss_rate::cpu.inst     0.013021                       # miss rate for overall accesses
system.cpu.icache.overall_miss_rate::total     0.013021                       # miss rate for overall accesses
system.cpu.icache.ReadReq_avg_miss_latency::cpu.inst 60104.752307                       # average ReadReq miss latency
system.cpu.icache.ReadReq_avg_miss_latency::total 60104.752307                       # average ReadReq miss latency
system.cpu.icache.demand_avg_miss_latency::cpu.inst 60104.752307                       # average overall miss latency
system.cpu.icache.demand_avg_miss_latency::total 60104.752307                       # average overall miss latency
system.cpu.icache.overall_avg_miss_latency::cpu.inst 60104.752307                       # average overall miss latency
system.cpu.icache.overall_avg_miss_latency::total 60104.752307                       # average overall miss latency
system.cpu.icache.blocked_cycles::no_mshrs            0                       # number of cycles access was blocked
system.cpu.icache.blocked_cycles::no_targets            0                       # number of cycles access was blocked
system.cpu.icache.blocked::no_mshrs                 0                       # number of cycles access was blocked
system.cpu.icache.blocked::no_targets               0                       # number of cycles access was blocked
system.cpu.icache.avg_blocked_cycles::no_mshrs          nan                       # average number of cycles each access was blocked
system.cpu.icache.avg_blocked_cycles::no_targets          nan                       # average number of cycles each access was blocked
system.cpu.icache.writebacks::writebacks      1267898                       # number of writebacks
system.cpu.icache.writebacks::total           1267898                       # number of writebacks
system.cpu.icache.ReadReq_mshr_misses::cpu.inst      1268626                       # number of ReadReq MSHR misses
system.cpu.icache.ReadReq_mshr_misses::total      1268626                       # number of ReadReq MSHR misses
system.cpu.icache.demand_mshr_misses::cpu.inst      1268626                       # number of demand (read+write) MSHR misses
system.cpu.icache.demand_mshr_misses::total      1268626                       # number of demand (read+write) MSHR misses
system.cpu.icache.overall_mshr_misses::cpu.inst      1268626                       # number of overall MSHR misses
system.cpu.icache.overall_mshr_misses::total      1268626                       # number of overall MSHR misses
system.cpu.icache.ReadReq_mshr_miss_latency::cpu.inst  74981825500                       # number of ReadReq MSHR miss cycles
system.cpu.icache.ReadReq_mshr_miss_latency::total  74981825500                       # number of ReadReq MSHR miss cycles
system.cpu.icache.demand_mshr_miss_latency::cpu.inst  74981825500                       # number of demand (read+write) MSHR miss cycles
[...]
system.l2.overall_avg_mshr_uncacheable_latency::cpu.data 120275.139665                       # average overall mshr uncacheable latency
system.l2.overall_avg_mshr_uncacheable_latency::total 120275.139665                       # average overall mshr uncacheable latency
system.membus.snoop_filter.tot_requests        114630                       # Total number of requests made to the snoop filter.
system.membus.snoop_filter.hit_single_requests        57397                       # Number of requests hitting in the snoop filter with a single holder of the requested data.
system.membus.snoop_filter.hit_multi_requests           28                       # Number of requests hitting in the snoop filter with multiple (>1) holders of the requested data.
system.membus.snoop_filter.tot_snoops               0                       # Total number of snoops made to the snoop filter.
system.membus.snoop_filter.hit_single_snoops            0                       # Number of snoops hitting in the snoop filter with a single holder of the requested data.
system.membus.snoop_filter.hit_multi_snoops            0                       # Number of snoops hitting in the snoop filter with multiple (>1) holders of the requested data.
system.membus.pwrStateResidencyTicks::UNDEFINED   6835190000                       # Cumulative time (in ticks) in various power states
system.membus.trans_dist::ReadReq                 610                       # Transaction distribution
system.membus.trans_dist::ReadResp              33338                       # Transaction distribution
system.membus.trans_dist::WriteReq                464                       # Transaction distribution
system.membus.trans_dist::WriteResp               464                       # Transaction distribution
system.membus.trans_dist::WritebackDirty        26954                       # Transaction distribution
system.membus.trans_dist::CleanEvict            30280                       # Transaction distribution
system.membus.trans_dist::UpgradeReq                4                       # Transaction distribution
system.membus.trans_dist::ReadExReq             13310                       # Transaction distribution
system.membus.trans_dist::ReadExResp            13310                       # Transaction distribution
system.membus.trans_dist::ReadSharedReq         32728                       # Transaction distribution
system.membus.trans_dist::InvalidateReq         11328                       # Transaction distribution
system.membus.pkt_count_system.iocache.mem_side::system.mem_ctrls.port        22710                       # Packet count per connected master and slave (bytes)
system.membus.pkt_count_system.iocache.mem_side::total        22710                       # Packet count per connected master and slave (bytes)
system.membus.pkt_count_system.l2.mem_side::system.bridge.slave         2148                       # Packet count per connected master and slave (bytes)
system.membus.pkt_count_system.l2.mem_side::system.mem_ctrls.port       137905                       # Packet count per connected master and slave (bytes)
system.membus.pkt_count_system.l2.mem_side::total       140053                       # Packet count per connected master and slave (bytes)
system.membus.pkt_count::total                 162763                       # Packet count per connected master and slave (bytes)
system.membus.pkt_size_system.iocache.mem_side::system.mem_ctrls.port       724992                       # Cumulative packet size per connected master and slave (bytes)
system.membus.pkt_size_system.iocache.mem_side::total       724992                       # Cumulative packet size per connected master and slave (bytes)
system.membus.pkt_size_system.l2.mem_side::system.bridge.slave         1735                       # Cumulative packet size per connected master and slave (bytes)
system.membus.pkt_size_system.l2.mem_side::system.mem_ctrls.port      3944768                       # Cumulative packet size per connected master and slave (bytes)
system.membus.pkt_size_system.l2.mem_side::total      3946503                       # Cumulative packet size per connected master and slave (bytes)
system.membus.pkt_size::total                 4671495                       # Cumulative packet size per connected master and slave (bytes)
system.membus.snoops                               27                       # Total snoops (count)
system.membus.snoopTraffic                       1728                       # Total snoop traffic (bytes)
system.membus.snoop_fanout::samples             58444                       # Request fanout histogram
system.membus.snoop_fanout::mean             0.000479                       # Request fanout histogram
system.membus.snoop_fanout::stdev            0.021883                       # Request fanout histogram
system.membus.snoop_fanout::underflows              0      0.00%      0.00% # Request fanout histogram
system.membus.snoop_fanout::0                   58416     99.95%     99.95% # Request fanout histogram
system.membus.snoop_fanout::1                      28      0.05%    100.00% # Request fanout histogram
system.membus.snoop_fanout::2                       0      0.00%    100.00% # Request fanout histogram
system.membus.snoop_fanout::overflows               0      0.00%    100.00% # Request fanout histogram
system.membus.snoop_fanout::min_value               0                       # Request fanout histogram
system.membus.snoop_fanout::max_value               1                       # Request fanout histogram
system.membus.snoop_fanout::total               58444                       # Request fanout histogram
system.membus.reqLayer0.occupancy             1796000                       # Layer occupancy (ticks)
system.membus.reqLayer0.utilization               0.0                       # Layer utilization (%)
system.membus.reqLayer1.occupancy           223237024                       # Layer occupancy (ticks)
system.membus.reqLayer1.utilization               3.3                       # Layer utilization (%)
system.membus.respLayer1.occupancy             148515                       # Layer occupancy (ticks)
system.membus.respLayer1.utilization              0.0                       # Layer utilization (%)
system.membus.respLayer2.occupancy          247880750                       # Layer occupancy (ticks)
system.membus.respLayer2.utilization              3.6                       # Layer utilization (%)
system.membus.badaddr_responder.pwrStateResidencyTicks::UNDEFINED   6835190000                       # Cumulative time (in ticks) in various power states
system.tol2bus.snoop_filter.tot_requests       113851                       # Total number of requests made to the snoop filter.
system.tol2bus.snoop_filter.hit_single_requests        56933                       # Number of requests hitting in the snoop filter with a single holder of the requested data.
system.tol2bus.snoop_filter.hit_multi_requests          264                       # Number of requests hitting in the snoop filter with multiple (>1) holders of the requested data.
system.tol2bus.snoop_filter.tot_snoops          43746                       # Total number of snoops made to the snoop filter.
system.tol2bus.snoop_filter.hit_single_snoops        43533                       # Number of snoops hitting in the snoop filter with a single holder of the requested data.
system.tol2bus.snoop_filter.hit_multi_snoops          213                       # Number of snoops hitting in the snoop filter with multiple (>1) holders of the requested data.
system.tol2bus.pwrStateResidencyTicks::UNDEFINED   6835190000                       # Cumulative time (in ticks) in various power states
system.tol2bus.trans_dist::ReadReq                610                       # Transaction distribution
system.tol2bus.trans_dist::ReadResp             44030                       # Transaction distribution
system.tol2bus.trans_dist::WriteReq               464                       # Transaction distribution
system.tol2bus.trans_dist::WriteResp              464                       # Transaction distribution
system.tol2bus.trans_dist::WritebackDirty        31997                       # Transaction distribution
system.tol2bus.trans_dist::WritebackClean        30381                       # Transaction distribution
system.tol2bus.trans_dist::CleanEvict           75128                       # Transaction distribution
system.tol2bus.trans_dist::UpgradeReq               5                       # Transaction distribution
system.tol2bus.trans_dist::UpgradeResp              5                       # Transaction distribution
system.tol2bus.trans_dist::ReadExReq            13533                       # Transaction distribution
system.tol2bus.trans_dist::ReadExResp           13533                       # Transaction distribution
system.tol2bus.trans_dist::ReadCleanReq         30387                       # Transaction distribution
system.tol2bus.trans_dist::ReadSharedReq        13033                       # Transaction distribution
system.tol2bus.trans_dist::InvalidateReq            1                       # Transaction distribution
system.tol2bus.pkt_count_system.cpu.icache.mem_side::system.l2.cpu_side        91154                       # Packet count per connected master and slave (bytes)
system.tol2bus.pkt_count_system.cpu.dcache.mem_side::system.l2.cpu_side        81802                       # Packet count per connected master and slave (bytes)
system.tol2bus.pkt_count::total                172956                       # Packet count per connected master and slave (bytes)
system.tol2bus.pkt_size_system.cpu.icache.mem_side::system.l2.cpu_side      3889088                       # Cumulative packet size per connected master and slave (bytes)
system.tol2bus.pkt_size_system.cpu.dcache.mem_side::system.l2.cpu_side      2749703                       # Cumulative packet size per connected master and slave (bytes)
system.tol2bus.pkt_size::total                6638791                       # Cumulative packet size per connected master and slave (bytes)
system.tol2bus.snoops                           80642                       # Total snoops (count)
system.tol2bus.snoopTraffic                   1001856                       # Total snoop traffic (bytes)
system.tol2bus.snoop_fanout::samples           138619                       # Request fanout histogram
system.tol2bus.snoop_fanout::mean            0.319040                       # Request fanout histogram
system.tol2bus.snoop_fanout::stdev           0.469391                       # Request fanout histogram
system.tol2bus.snoop_fanout::underflows             0      0.00%      0.00% # Request fanout histogram
system.tol2bus.snoop_fanout::0                  94607     68.25%     68.25% # Request fanout histogram
system.tol2bus.snoop_fanout::1                  43799     31.60%     99.85% # Request fanout histogram
system.tol2bus.snoop_fanout::2                    213      0.15%    100.00% # Request fanout histogram
system.tol2bus.snoop_fanout::overflows              0      0.00%    100.00% # Request fanout histogram
system.tol2bus.snoop_fanout::min_value              0                       # Request fanout histogram
system.tol2bus.snoop_fanout::max_value              2                       # Request fanout histogram
system.tol2bus.snoop_fanout::total             138619                       # Request fanout histogram
system.tol2bus.reqLayer0.occupancy          104446500                       # Layer occupancy (ticks)
system.tol2bus.reqLayer0.utilization              1.5                       # Layer utilization (%)
system.tol2bus.snoopLayer0.occupancy            47985                       # Layer occupancy (ticks)
system.tol2bus.snoopLayer0.utilization            0.0                       # Layer utilization (%)
system.tol2bus.respLayer0.occupancy          45580500                       # Layer occupancy (ticks)
system.tol2bus.respLayer0.utilization             0.7                       # Layer utilization (%)
system.tol2bus.respLayer1.occupancy          40653000                       # Layer occupancy (ticks)
system.tol2bus.respLayer1.utilization             0.6                       # Layer utilization (%)
system.tsunami.backdoor.pwrStateResidencyTicks::UNDEFINED   6835190000                       # Cumulative time (in ticks) in various power states
system.tsunami.cchip.pwrStateResidencyTicks::UNDEFINED   6835190000                       # Cumulative time (in ticks) in various power states
system.tsunami.pchip.pwrStateResidencyTicks::UNDEFINED   6835190000                       # Cumulative time (in ticks) in various power states
system.tsunami.ethernet.pwrStateResidencyTicks::UNDEFINED   6835190000                       # Cumulative time (in ticks) in various power states
system.tsunami.ethernet.descDMAReads                0                       # Number of descriptors the device read w/ DMA
system.tsunami.ethernet.descDMAWrites               0                       # Number of descriptors the device wrote w/ DMA
system.tsunami.ethernet.descDmaReadBytes            0                       # number of descriptor bytes read w/ DMA
system.tsunami.ethernet.descDmaWriteBytes            0                       # number of descriptor bytes write w/ DMA
system.tsunami.ethernet.postedSwi                   0                       # number of software interrupts posted to CPU
system.tsunami.ethernet.coalescedSwi              nan                       # average number of Swi's coalesced into each post
system.tsunami.ethernet.totalSwi                    0                       # total number of Swi written to ISR
system.tsunami.ethernet.postedRxIdle                0                       # number of rxIdle interrupts posted to CPU
system.tsunami.ethernet.coalescedRxIdle           nan                       # average number of RxIdle's coalesced into each post
system.tsunami.ethernet.totalRxIdle                 0                       # total number of RxIdle written to ISR
system.tsunami.ethernet.postedRxOk                  0                       # number of RxOk interrupts posted to CPU
system.tsunami.ethernet.coalescedRxOk             nan                       # average number of RxOk's coalesced into each post
system.tsunami.ethernet.totalRxOk                   0                       # total number of RxOk written to ISR
system.tsunami.ethernet.postedRxDesc                0                       # number of RxDesc interrupts posted to CPU
system.tsunami.ethernet.coalescedRxDesc           nan                       # average number of RxDesc's coalesced into each post
system.tsunami.ethernet.totalRxDesc                 0                       # total number of RxDesc written to ISR
system.tsunami.ethernet.postedTxOk                  0                       # number of TxOk interrupts posted to CPU
system.tsunami.ethernet.coalescedTxOk             nan                       # average number of TxOk's coalesced into each post
system.tsunami.ethernet.totalTxOk                   0                       # total number of TxOk written to ISR
system.tsunami.ethernet.postedTxIdle                0                       # number of TxIdle interrupts posted to CPU
system.tsunami.ethernet.coalescedTxIdle           nan                       # average number of TxIdle's coalesced into each post
system.tsunami.ethernet.totalTxIdle                 0                       # total number of TxIdle written to ISR
system.tsunami.ethernet.postedTxDesc                0                       # number of TxDesc interrupts posted to CPU
system.tsunami.ethernet.coalescedTxDesc           nan                       # average number of TxDesc's coalesced into each post
system.tsunami.ethernet.totalTxDesc                 0                       # total number of TxDesc written to ISR
system.tsunami.ethernet.postedRxOrn                 0                       # number of RxOrn posted to CPU
system.tsunami.ethernet.coalescedRxOrn            nan                       # average number of RxOrn's coalesced into each post
system.tsunami.ethernet.totalRxOrn                  0                       # total number of RxOrn written to ISR
system.tsunami.ethernet.coalescedTotal            nan                       # average number of interrupts coalesced into each post
system.tsunami.ethernet.postedInterrupts            0                       # number of posts to CPU
system.tsunami.ethernet.droppedPackets              0                       # number of packets dropped
system.tsunami.fake_OROM.pwrStateResidencyTicks::UNDEFINED   6835190000                       # Cumulative time (in ticks) in various power states
system.tsunami.fake_ata0.pwrStateResidencyTicks::UNDEFINED   6835190000                       # Cumulative time (in ticks) in various power states
system.tsunami.fake_ata1.pwrStateResidencyTicks::UNDEFINED   6835190000                       # Cumulative time (in ticks) in various power states
system.tsunami.fake_pnp_addr.pwrStateResidencyTicks::UNDEFINED   6835190000                       # Cumulative time (in ticks) in various power states
system.tsunami.fake_pnp_read0.pwrStateResidencyTicks::UNDEFINED   6835190000                       # Cumulative time (in ticks) in various power states
system.tsunami.fake_pnp_read1.pwrStateResidencyTicks::UNDEFINED   6835190000                       # Cumulative time (in ticks) in various power states
system.tsunami.fake_pnp_read2.pwrStateResidencyTicks::UNDEFINED   6835190000                       # Cumulative time (in ticks) in various power states
system.tsunami.fake_pnp_read3.pwrStateResidencyTicks::UNDEFINED   6835190000                       # Cumulative time (in ticks) in various power states
system.tsunami.fake_pnp_read4.pwrStateResidencyTicks::UNDEFINED   6835190000                       # Cumulative time (in ticks) in various power states
system.tsunami.fake_pnp_read5.pwrStateResidencyTicks::UNDEFINED   6835190000                       # Cumulative time (in ticks) in various power states
system.tsunami.fake_pnp_read6.pwrStateResidencyTicks::UNDEFINED   6835190000                       # Cumulative time (in ticks) in various power states
system.tsunami.fake_pnp_read7.pwrStateResidencyTicks::UNDEFINED   6835190000                       # Cumulative time (in ticks) in various power states
system.tsunami.fake_pnp_write.pwrStateResidencyTicks::UNDEFINED   6835190000                       # Cumulative time (in ticks) in various power states
system.tsunami.fake_ppc.pwrStateResidencyTicks::UNDEFINED   6835190000                       # Cumulative time (in ticks) in various power states
system.tsunami.fake_sm_chip.pwrStateResidencyTicks::UNDEFINED   6835190000                       # Cumulative time (in ticks) in various power states
system.tsunami.fake_uart1.pwrStateResidencyTicks::UNDEFINED   6835190000                       # Cumulative time (in ticks) in various power states
system.tsunami.fake_uart2.pwrStateResidencyTicks::UNDEFINED   6835190000                       # Cumulative time (in ticks) in various power states
system.tsunami.fake_uart3.pwrStateResidencyTicks::UNDEFINED   6835190000                       # Cumulative time (in ticks) in various power states
system.tsunami.fake_uart4.pwrStateResidencyTicks::UNDEFINED   6835190000                       # Cumulative time (in ticks) in various power states
system.tsunami.fb.pwrStateResidencyTicks::UNDEFINED   6835190000                       # Cumulative time (in ticks) in various power states
system.tsunami.ide.pwrStateResidencyTicks::UNDEFINED   6835190000                       # Cumulative time (in ticks) in various power states
system.tsunami.io.pwrStateResidencyTicks::UNDEFINED   6835190000                       # Cumulative time (in ticks) in various power states
system.tsunami.uart.pwrStateResidencyTicks::UNDEFINED   6835190000                       # Cumulative time (in ticks) in various power states

---------- End Simulation Statistics   ----------
