---------- Begin Simulation Statistics ----------
sim_seconds                                  0.005285                       # Number of seconds simulated
sim_ticks                                  5284768000                       # Number of ticks simulated
system.cpu.dcache.tags.replacements             50055                       # number of replacements
system.cpu.dcache.tags.total_refs              561422                       # Total number of references to valid blocks.
system.cpu.dcache.tags.avg_refs             10.991249                       # Average number of references to valid blocks.
system.cpu.dcache.tags.occ_percent::total            1                       # Average percentage of cache occupancy
system.cpu.dcache.tags.data_accesses         18971719                       # Number of data accesses
system.cpu.dcache.ReadReq_hits::total          303996                       # number of ReadReq hits
system.cpu.dcache.WriteReq_hits::total         225515                       # number of WriteReq hits
system.cpu.dcache.overall_hits::total          529511                       # number of overall hits
system.cpu.dcache.ReadReq_misses::total         22100                       # number of ReadReq misses
system.cpu.dcache.overall_misses::total         49394                       # number of overall misses
system.cpu.dcache.ReadReq_miss_rate::total     0.067771                       # miss rate for ReadReq accesses
system.cpu.dcache.WriteReq_miss_rate::total     0.107963                       # miss rate for WriteReq accesses
system.cpu.dcache.overall_miss_rate::total     0.085323                       # miss rate for overall accesses
system.cpu.dcache.writebacks::total             39304                       # number of writebacks
system.l2.tags.replacements                      7131                       # number of replacements
system.l2.tags.total_refs                     2408410                       # Total number of references to valid blocks.
system.l2.tags.avg_refs                     60.564553                       # Average number of references to valid blocks.
system.l2.tags.occ_percent::total            0.886297                       # Average percentage of cache occupancy
system.l2.tags.data_accesses                  6990293                       # Number of data accesses
system.l2.overall_hits::total                   92068                       # number of overall hits
system.l2.overall_misses::total                 16957                       # number of overall misses
system.l2.overall_miss_rate::total           0.155533                       # miss rate for overall accesses
system.l2.writebacks::total                      1804                       # number of writebacks
---------- End Simulation Statistics   ----------
