---------- Begin Simulation Statistics ----------
sim_seconds                                  0.005159                       # Number of seconds simulated
sim_ticks                                  5158653000                       # Number of ticks simulated
system.cpu.dcache.tags.replacements             50369                       # number of replacements
system.cpu.dcache.tags.total_refs              571639                       # Total number of references to valid blocks.
system.cpu.dcache.tags.avg_refs             11.122896                       # Average number of references to valid blocks.
system.cpu.dcache.tags.occ_percent::total            1                       # Average percentage of cache occupancy
system.cpu.dcache.tags.data_accesses         19002273                       # Number of data accesses
system.cpu.dcache.ReadReq_hits::total          303914                       # number of ReadReq hits
system.cpu.dcache.WriteReq_hits::total         226219                       # number of WriteReq hits
system.cpu.dcache.overall_hits::total          530133                       # number of overall hits
system.cpu.dcache.ReadReq_misses::total         22172                       # number of ReadReq misses
system.cpu.dcache.overall_misses::total         49713                       # number of overall misses
system.cpu.dcache.ReadReq_miss_rate::total     0.067994                       # miss rate for ReadReq accesses
system.cpu.dcache.WriteReq_miss_rate::total     0.108532                       # miss rate for WriteReq accesses
system.cpu.dcache.overall_miss_rate::total     0.085735                       # miss rate for overall accesses
system.cpu.dcache.writebacks::total             40206                       # number of writebacks
system.l2.tags.replacements                      5401                       # number of replacements
system.l2.tags.total_refs                     2500756                       # Total number of references to valid blocks.
system.l2.tags.avg_refs                     65.517986                       # Average number of references to valid blocks.
system.l2.tags.occ_percent::total            0.889102                       # Average percentage of cache occupancy
system.l2.tags.data_accesses                 28013458                       # Number of data accesses
system.l2.overall_hits::total                   94022                       # number of overall hits
system.l2.overall_misses::total                 15385                       # number of overall misses
system.l2.overall_miss_rate::total           0.140622                       # miss rate for overall accesses
system.l2.writebacks::total                      1836                       # number of writebacks
---------- End Simulation Statistics   ----------
