
---------- Begin Simulation Statistics ----------
sim_seconds                                  2.534101                       # Number of seconds simulated
sim_ticks                                2534101128500                       # Number of ticks simulated
final_tick                               2534101128500                       # Number of ticks from beginning of simulation (restored from checkpoints and never reset)
sim_freq                                 1000000000000                       # Frequency of simulated ticks
host_inst_rate                                 221004                       # Simulator instruction rate (inst/s)
host_op_rate                                   221004                       # Simulator op (including micro ops) rate (op/s)
host_tick_rate                             4973184550                       # Simulator tick rate (ticks/s)
host_mem_usage                                 756844                       # Number of bytes of host memory used
host_seconds                                   509.55                       # Real time elapsed on the host
sim_insts                                   112613207                       # Number of instructions simulated
sim_ops                                     112613207                       # Number of ops (including micro ops) simulated
system.voltage_domain.voltage                       1                       # Voltage in Volts
system.clk_domain.clock                          1000                       # Clock period in ticks
system.mem_ctrls.pwrStateResidencyTicks::UNDEFINED 2534101128500                       # Cumulative time (in ticks) in various power states
system.mem_ctrls.bytes_read::cpu0.inst         512528                       # Number of bytes read from this memory
system.mem_ctrls.bytes_read::cpu0.data       16609136                       # Number of bytes read from this memory
system.mem_ctrls.bytes_read::cpu1.inst         107968                       # Number of bytes read from this memory
system.mem_ctrls.bytes_read::cpu1.data         615424                       # Number of bytes read from this memory
system.mem_ctrls.bytes_read::cpu2.inst         507184                       # Number of bytes read from this memory
system.mem_ctrls.bytes_read::cpu2.data        2917648                       # Number of bytes read from this memory
system.mem_ctrls.bytes_read::cpu3.inst          62720                       # Number of bytes read from this memory
system.mem_ctrls.bytes_read::cpu3.data         463600                       # Number of bytes read from this memory
system.mem_ctrls.bytes_read::tsunami.ide         4048                       # Number of bytes read from this memory
system.mem_ctrls.bytes_read::total           21800256                       # Number of bytes read from this memory
system.mem_ctrls.bytes_inst_read::cpu0.inst       512528                       # Number of instructions bytes read from this memory
system.mem_ctrls.bytes_inst_read::cpu1.inst       107968                       # Number of instructions bytes read from this memory
system.mem_ctrls.bytes_inst_read::cpu2.inst       507184                       # Number of instructions bytes read from this memory
system.mem_ctrls.bytes_inst_read::cpu3.inst        62720                       # Number of instructions bytes read from this memory
system.mem_ctrls.bytes_inst_read::total       1190400                       # Number of instructions bytes read from this memory
system.mem_ctrls.bytes_written::writebacks     18380800                       # Number of bytes written to this memory
system.mem_ctrls.bytes_written::total        18380800                       # Number of bytes written to this memory
system.mem_ctrls.num_reads::cpu0.inst           32033                       # Number of read requests responded to by this memory
system.mem_ctrls.num_reads::cpu0.data         1038071                       # Number of read requests responded to by this memory
system.mem_ctrls.num_reads::cpu1.inst            6748                       # Number of read requests responded to by this memory
system.mem_ctrls.num_reads::cpu1.data           38464                       # Number of read requests responded to by this memory
system.mem_ctrls.num_reads::cpu2.inst           31699                       # Number of read requests responded to by this memory
system.mem_ctrls.num_reads::cpu2.data          182353                       # Number of read requests responded to by this memory
system.mem_ctrls.num_reads::cpu3.inst            3920                       # Number of read requests responded to by this memory
system.mem_ctrls.num_reads::cpu3.data           28975                       # Number of read requests responded to by this memory
system.mem_ctrls.num_reads::tsunami.ide           253                       # Number of read requests responded to by this memory
system.mem_ctrls.num_reads::total             1362516                       # Number of read requests responded to by this memory
system.mem_ctrls.num_writes::writebacks       1148800                       # Number of write requests responded to by this memory
system.mem_ctrls.num_writes::total            1148800                       # Number of write requests responded to by this memory
system.mem_ctrls.bw_read::cpu0.inst            202252                       # Total read bandwidth from this memory (bytes/s)
system.mem_ctrls.bw_read::cpu0.data           6554251                       # Total read bandwidth from this memory (bytes/s)
system.mem_ctrls.bw_read::cpu1.inst             42606                       # Total read bandwidth from this memory (bytes/s)
system.mem_ctrls.bw_read::cpu1.data            242857                       # Total read bandwidth from this memory (bytes/s)
system.mem_ctrls.bw_read::cpu2.inst            200144                       # Total read bandwidth from this memory (bytes/s)
system.mem_ctrls.bw_read::cpu2.data           1151354                       # Total read bandwidth from this memory (bytes/s)
system.mem_ctrls.bw_read::cpu3.inst             24750                       # Total read bandwidth from this memory (bytes/s)
system.mem_ctrls.bw_read::cpu3.data            182945                       # Total read bandwidth from this memory (bytes/s)
system.mem_ctrls.bw_read::tsunami.ide            1597                       # Total read bandwidth from this memory (bytes/s)
system.mem_ctrls.bw_read::total               8602757                       # Total read bandwidth from this memory (bytes/s)
system.mem_ctrls.bw_inst_read::cpu0.inst       202252                       # Instruction read bandwidth from this memory (bytes/s)
system.mem_ctrls.bw_inst_read::cpu1.inst        42606                       # Instruction read bandwidth from this memory (bytes/s)
system.mem_ctrls.bw_inst_read::cpu2.inst       200144                       # Instruction read bandwidth from this memory (bytes/s)
system.mem_ctrls.bw_inst_read::cpu3.inst        24750                       # Instruction read bandwidth from this memory (bytes/s)
system.mem_ctrls.bw_inst_read::total           469752                       # Instruction read bandwidth from this memory (bytes/s)
system.mem_ctrls.bw_write::writebacks         7253381                       # Write bandwidth from this memory (bytes/s)
system.mem_ctrls.bw_write::total              7253381                       # Write bandwidth from this memory (bytes/s)
system.mem_ctrls.bw_total::writebacks         7253381                       # Total bandwidth to/from this memory (bytes/s)
system.mem_ctrls.bw_total::cpu0.inst           202252                       # Total bandwidth to/from this memory (bytes/s)
system.mem_ctrls.bw_total::cpu0.data          6554251                       # Total bandwidth to/from this memory (bytes/s)
system.mem_ctrls.bw_total::cpu1.inst            42606                       # Total bandwidth to/from this memory (bytes/s)
system.mem_ctrls.bw_total::cpu1.data           242857                       # Total bandwidth to/from this memory (bytes/s)
system.mem_ctrls.bw_total::cpu2.inst           200144                       # Total bandwidth to/from this memory (bytes/s)
system.mem_ctrls.bw_total::cpu2.data          1151354                       # Total bandwidth to/from this memory (bytes/s)
system.mem_ctrls.bw_total::cpu3.inst            24750                       # Total bandwidth to/from this memory (bytes/s)
system.mem_ctrls.bw_total::cpu3.data           182945                       # Total bandwidth to/from this memory (bytes/s)
system.mem_ctrls.bw_total::tsunami.ide           1597                       # Total bandwidth to/from this memory (bytes/s)
system.mem_ctrls.bw_total::total             15856138                       # Total bandwidth to/from this memory (bytes/s)
system.mem_ctrls.readReqs                     1362516                       # Number of read requests accepted
system.mem_ctrls.writeReqs                    1148800                       # Number of write requests accepted
system.mem_ctrls.readBursts                   1362516                       # Number of DRAM read bursts, including those serviced by the write queue
system.mem_ctrls.writeBursts                  1148800                       # Number of DRAM write bursts, including those merged in the write queue
system.mem_ctrls.bytesReadDRAM               87181760                       # Total number of bytes read from DRAM
system.mem_ctrls.bytesReadWrQ                   19264                       # Total number of bytes read from write queue
system.mem_ctrls.bytesWritten                51675520                       # Total number of bytes written to DRAM
system.mem_ctrls.bytesReadSys                21800256                       # Total read bytes from the system interface side
system.mem_ctrls.bytesWrittenSys             18380800                       # Total written bytes from the system interface side
system.mem_ctrls.servicedByWrQ                    301                       # Number of DRAM read bursts serviced by the write queue
system.mem_ctrls.mergedWrBursts                341355                       # Number of DRAM write bursts merged with an existing one
system.mem_ctrls.neitherReadNorWriteReqs            0                       # Number of requests that are neither read nor write
system.mem_ctrls.perBankRdBursts::0             84294                       # Per bank write bursts
system.mem_ctrls.perBankRdBursts::1             85024                       # Per bank write bursts
system.mem_ctrls.perBankRdBursts::2             86936                       # Per bank write bursts
system.mem_ctrls.perBankRdBursts::3             84610                       # Per bank write bursts
system.mem_ctrls.perBankRdBursts::4             82321                       # Per bank write bursts
system.mem_ctrls.perBankRdBursts::5             85127                       # Per bank write bursts
system.mem_ctrls.perBankRdBursts::6             89543                       # Per bank write bursts
system.mem_ctrls.perBankRdBursts::7             88398                       # Per bank write bursts
system.mem_ctrls.perBankRdBursts::8             82924                       # Per bank write bursts
system.mem_ctrls.perBankRdBursts::9             84755                       # Per bank write bursts
system.mem_ctrls.perBankRdBursts::10            86234                       # Per bank write bursts
system.mem_ctrls.perBankRdBursts::11            84076                       # Per bank write bursts
system.mem_ctrls.perBankRdBursts::12            84103                       # Per bank write bursts
system.mem_ctrls.perBankRdBursts::13            84415                       # Per bank write bursts
system.mem_ctrls.perBankRdBursts::14            84753                       # Per bank write bursts
system.mem_ctrls.perBankRdBursts::15            84702                       # Per bank write bursts
system.mem_ctrls.perBankWrBursts::0             52941                       # Per bank write bursts
system.mem_ctrls.perBankWrBursts::1             51813                       # Per bank write bursts
system.mem_ctrls.perBankWrBursts::2             53786                       # Per bank write bursts
system.mem_ctrls.perBankWrBursts::3             51934                       # Per bank write bursts
system.mem_ctrls.perBankWrBursts::4             50870                       # Per bank write bursts
system.mem_ctrls.perBankWrBursts::5             50968                       # Per bank write bursts
system.mem_ctrls.perBankWrBursts::6             51463                       # Per bank write bursts
system.mem_ctrls.perBankWrBursts::7             53971                       # Per bank write bursts
system.mem_ctrls.perBankWrBursts::8             46383                       # Per bank write bursts
system.mem_ctrls.perBankWrBursts::9             49032                       # Per bank write bursts
system.mem_ctrls.perBankWrBursts::10            47474                       # Per bank write bursts
system.mem_ctrls.perBankWrBursts::11            47728                       # Per bank write bursts
system.mem_ctrls.perBankWrBursts::12            46732                       # Per bank write bursts
system.mem_ctrls.perBankWrBursts::13            48945                       # Per bank write bursts
system.mem_ctrls.perBankWrBursts::14            50682                       # Per bank write bursts
system.mem_ctrls.perBankWrBursts::15            52708                       # Per bank write bursts
system.mem_ctrls.numRdRetry                         0                       # Number of times read queue was full causing retry
system.mem_ctrls.numWrRetry                         0                       # Number of times write queue was full causing retry
system.mem_ctrls.totGap                  2534100968500                       # Total gap between requests
system.mem_ctrls.readPktSize::0                     0                       # Read request sizes (log2)
system.mem_ctrls.readPktSize::1                     0                       # Read request sizes (log2)
system.mem_ctrls.readPktSize::2                     0                       # Read request sizes (log2)
system.mem_ctrls.readPktSize::3                     0                       # Read request sizes (log2)
system.mem_ctrls.readPktSize::4               1362516                       # Read request sizes (log2)
system.mem_ctrls.readPktSize::5                     0                       # Read request sizes (log2)
system.mem_ctrls.readPktSize::6                     0                       # Read request sizes (log2)
system.mem_ctrls.writePktSize::0                    0                       # Write request sizes (log2)
system.mem_ctrls.writePktSize::1                    0                       # Write request sizes (log2)
system.mem_ctrls.writePktSize::2                    0                       # Write request sizes (log2)
system.mem_ctrls.writePktSize::3                    0                       # Write request sizes (log2)
system.mem_ctrls.writePktSize::4              1148800                       # Write request sizes (log2)
system.mem_ctrls.writePktSize::5                    0                       # Write request sizes (log2)
system.mem_ctrls.writePktSize::6                    0                       # Write request sizes (log2)
system.mem_ctrls.rdQLenPdf::0                 1357913                       # What read queue length does an incoming req see
system.mem_ctrls.rdQLenPdf::1                    3850                       # What read queue length does an incoming req see
system.mem_ctrls.rdQLenPdf::2                     221                       # What read queue length does an incoming req see
system.mem_ctrls.rdQLenPdf::3                      10                       # What read queue length does an incoming req see
system.mem_ctrls.rdQLenPdf::4                      14                       # What read queue length does an incoming req see
system.mem_ctrls.rdQLenPdf::5                      16                       # What read queue length does an incoming req see
system.mem_ctrls.rdQLenPdf::6                      16                       # What read queue length does an incoming req see
system.mem_ctrls.rdQLenPdf::7                      19                       # What read queue length does an incoming req see
system.mem_ctrls.rdQLenPdf::8                      52                       # What read queue length does an incoming req see
system.mem_ctrls.rdQLenPdf::9                      45                       # What read queue length does an incoming req see
system.mem_ctrls.rdQLenPdf::10                     18                       # What read queue length does an incoming req see
system.mem_ctrls.rdQLenPdf::11                     12                       # What read queue length does an incoming req see
system.mem_ctrls.rdQLenPdf::12                      9                       # What read queue length does an incoming req see
system.mem_ctrls.rdQLenPdf::13                      4                       # What read queue length does an incoming req see
system.mem_ctrls.rdQLenPdf::14                      3                       # What read queue length does an incoming req see
system.mem_ctrls.rdQLenPdf::15                      3                       # What read queue length does an incoming req see
system.mem_ctrls.rdQLenPdf::16                      3                       # What read queue length does an incoming req see
system.mem_ctrls.rdQLenPdf::17                      3                       # What read queue length does an incoming req see
system.mem_ctrls.rdQLenPdf::18                      2                       # What read queue length does an incoming req see
system.mem_ctrls.rdQLenPdf::19                      2                       # What read queue length does an incoming req see
system.mem_ctrls.rdQLenPdf::20                      0                       # What read queue length does an incoming req see
system.mem_ctrls.rdQLenPdf::21                      0                       # What read queue length does an incoming req see
system.mem_ctrls.rdQLenPdf::22                      0                       # What read queue length does an incoming req see
system.mem_ctrls.rdQLenPdf::23                      0                       # What read queue length does an incoming req see
system.mem_ctrls.rdQLenPdf::24                      0                       # What read queue length does an incoming req see
system.mem_ctrls.rdQLenPdf::25                      0                       # What read queue length does an incoming req see
system.mem_ctrls.rdQLenPdf::26                      0                       # What read queue length does an incoming req see
system.mem_ctrls.rdQLenPdf::27                      0                       # What read queue length does an incoming req see
system.mem_ctrls.rdQLenPdf::28                      0                       # What read queue length does an incoming req see
system.mem_ctrls.rdQLenPdf::29                      0                       # What read queue length does an incoming req see
system.mem_ctrls.rdQLenPdf::30                      0                       # What read queue length does an incoming req see
system.mem_ctrls.rdQLenPdf::31                      0                       # What read queue length does an incoming req see
system.mem_ctrls.wrQLenPdf::0                       1                       # What write queue length does an incoming req see
system.mem_ctrls.wrQLenPdf::1                       1                       # What write queue length does an incoming req see
system.mem_ctrls.wrQLenPdf::2                       1                       # What write queue length does an incoming req see
system.mem_ctrls.wrQLenPdf::3                       1                       # What write queue length does an incoming req see
system.mem_ctrls.wrQLenPdf::4                       1                       # What write queue length does an incoming req see
system.mem_ctrls.wrQLenPdf::5                       1                       # What write queue length does an incoming req see
system.mem_ctrls.wrQLenPdf::6                       1                       # What write queue length does an incoming req see
system.mem_ctrls.wrQLenPdf::7                       1                       # What write queue length does an incoming req see
system.mem_ctrls.wrQLenPdf::8                       1                       # What write queue length does an incoming req see
system.mem_ctrls.wrQLenPdf::9                       1                       # What write queue length does an incoming req see
system.mem_ctrls.wrQLenPdf::10                      1                       # What write queue length does an incoming req see
system.mem_ctrls.wrQLenPdf::11                      1                       # What write queue length does an incoming req see
system.mem_ctrls.wrQLenPdf::12                      1                       # What write queue length does an incoming req see
system.mem_ctrls.wrQLenPdf::13                      1                       # What write queue length does an incoming req see
system.mem_ctrls.wrQLenPdf::14                      1                       # What write queue length does an incoming req see
system.mem_ctrls.wrQLenPdf::15                   6996                       # What write queue length does an incoming req see
system.mem_ctrls.wrQLenPdf::16                   8844                       # What write queue length does an incoming req see
system.mem_ctrls.wrQLenPdf::17                  49325                       # What write queue length does an incoming req see
system.mem_ctrls.wrQLenPdf::18                  49478                       # What write queue length does an incoming req see
system.mem_ctrls.wrQLenPdf::19                  49861                       # What write queue length does an incoming req see
system.mem_ctrls.wrQLenPdf::20                  49578                       # What write queue length does an incoming req see
system.mem_ctrls.wrQLenPdf::21                  49362                       # What write queue length does an incoming req see
system.mem_ctrls.wrQLenPdf::22                  49182                       # What write queue length does an incoming req see
system.mem_ctrls.wrQLenPdf::23                  49172                       # What write queue length does an incoming req see
system.mem_ctrls.wrQLenPdf::24                  49175                       # What write queue length does an incoming req see
system.mem_ctrls.wrQLenPdf::25                  49810                       # What write queue length does an incoming req see
system.mem_ctrls.wrQLenPdf::26                  49628                       # What write queue length does an incoming req see
system.mem_ctrls.wrQLenPdf::27                  49326                       # What write queue length does an incoming req see
system.mem_ctrls.wrQLenPdf::28                  49307                       # What write queue length does an incoming req see
system.mem_ctrls.wrQLenPdf::29                  49172                       # What write queue length does an incoming req see
system.mem_ctrls.wrQLenPdf::30                  49051                       # What write queue length does an incoming req see
system.mem_ctrls.wrQLenPdf::31                  49022                       # What write queue length does an incoming req see
system.mem_ctrls.wrQLenPdf::32                  48912                       # What write queue length does an incoming req see
system.mem_ctrls.wrQLenPdf::33                    197                       # What write queue length does an incoming req see
system.mem_ctrls.wrQLenPdf::34                    183                       # What write queue length does an incoming req see
system.mem_ctrls.wrQLenPdf::35                    167                       # What write queue length does an incoming req see
system.mem_ctrls.wrQLenPdf::36                    145                       # What write queue length does an incoming req see
system.mem_ctrls.wrQLenPdf::37                    130                       # What write queue length does an incoming req see
system.mem_ctrls.wrQLenPdf::38                    105                       # What write queue length does an incoming req see
system.mem_ctrls.wrQLenPdf::39                    106                       # What write queue length does an incoming req see
system.mem_ctrls.wrQLenPdf::40                    126                       # What write queue length does an incoming req see
system.mem_ctrls.wrQLenPdf::41                     98                       # What write queue length does an incoming req see
system.mem_ctrls.wrQLenPdf::42                    100                       # What write queue length does an incoming req see
system.mem_ctrls.wrQLenPdf::43                    101                       # What write queue length does an incoming req see
system.mem_ctrls.wrQLenPdf::44                     92                       # What write queue length does an incoming req see
system.mem_ctrls.wrQLenPdf::45                     90                       # What write queue length does an incoming req see
system.mem_ctrls.wrQLenPdf::46                     79                       # What write queue length does an incoming req see
system.mem_ctrls.wrQLenPdf::47                     70                       # What write queue length does an incoming req see
system.mem_ctrls.wrQLenPdf::48                     70                       # What write queue length does an incoming req see
system.mem_ctrls.wrQLenPdf::49                     58                       # What write queue length does an incoming req see
system.mem_ctrls.wrQLenPdf::50                     61                       # What write queue length does an incoming req see
system.mem_ctrls.wrQLenPdf::51                     61                       # What write queue length does an incoming req see
system.mem_ctrls.wrQLenPdf::52                     59                       # What write queue length does an incoming req see
system.mem_ctrls.wrQLenPdf::53                     53                       # What write queue length does an incoming req see
system.mem_ctrls.wrQLenPdf::54                     43                       # What write queue length does an incoming req see
system.mem_ctrls.wrQLenPdf::55                     24                       # What write queue length does an incoming req see
system.mem_ctrls.wrQLenPdf::56                      8                       # What write queue length does an incoming req see
system.mem_ctrls.wrQLenPdf::57                      3                       # What write queue length does an incoming req see
system.mem_ctrls.wrQLenPdf::58                      0                       # What write queue length does an incoming req see
system.mem_ctrls.wrQLenPdf::59                      0                       # What write queue length does an incoming req see
system.mem_ctrls.wrQLenPdf::60                      0                       # What write queue length does an incoming req see
system.mem_ctrls.wrQLenPdf::61                      0                       # What write queue length does an incoming req see
system.mem_ctrls.wrQLenPdf::62                      0                       # What write queue length does an incoming req see
system.mem_ctrls.wrQLenPdf::63                      0                       # What write queue length does an incoming req see
system.mem_ctrls.bytesPerActivate::samples       365158                       # Bytes accessed per row activation
system.mem_ctrls.bytesPerActivate::mean    380.265244                       # Bytes accessed per row activation
system.mem_ctrls.bytesPerActivate::gmean   209.519937                       # Bytes accessed per row activation
system.mem_ctrls.bytesPerActivate::stdev   387.895120                       # Bytes accessed per row activation
system.mem_ctrls.bytesPerActivate::0-127       131531     36.02%     36.02% # Bytes accessed per row activation
system.mem_ctrls.bytesPerActivate::128-255        77411     21.20%     57.22% # Bytes accessed per row activation
system.mem_ctrls.bytesPerActivate::256-383        29655      8.12%     65.34% # Bytes accessed per row activation
system.mem_ctrls.bytesPerActivate::384-511        14137      3.87%     69.21% # Bytes accessed per row activation
system.mem_ctrls.bytesPerActivate::512-639        11091      3.04%     72.25% # Bytes accessed per row activation
system.mem_ctrls.bytesPerActivate::640-767         8257      2.26%     74.51% # Bytes accessed per row activation
system.mem_ctrls.bytesPerActivate::768-895         7029      1.92%     76.44% # Bytes accessed per row activation
system.mem_ctrls.bytesPerActivate::896-1023         5609      1.54%     77.97% # Bytes accessed per row activation
system.mem_ctrls.bytesPerActivate::1024-1151        80438     22.03%    100.00% # Bytes accessed per row activation
system.mem_ctrls.bytesPerActivate::total       365158                       # Bytes accessed per row activation
system.mem_ctrls.rdPerTurnAround::samples        48788                       # Reads before turning the bus around for writes
system.mem_ctrls.rdPerTurnAround::mean      27.921108                       # Reads before turning the bus around for writes
system.mem_ctrls.rdPerTurnAround::stdev    487.237063                       # Reads before turning the bus around for writes
system.mem_ctrls.rdPerTurnAround::0-4095        48785     99.99%     99.99% # Reads before turning the bus around for writes
system.mem_ctrls.rdPerTurnAround::24576-28671            1      0.00%    100.00% # Reads before turning the bus around for writes
system.mem_ctrls.rdPerTurnAround::49152-53247            1      0.00%    100.00% # Reads before turning the bus around for writes
system.mem_ctrls.rdPerTurnAround::90112-94207            1      0.00%    100.00% # Reads before turning the bus around for writes
system.mem_ctrls.rdPerTurnAround::total         48788                       # Reads before turning the bus around for writes
system.mem_ctrls.wrPerTurnAround::samples        48788                       # Writes before turning the bus around for reads
system.mem_ctrls.wrPerTurnAround::mean      16.549766                       # Writes before turning the bus around for reads
system.mem_ctrls.wrPerTurnAround::gmean     16.467953                       # Writes before turning the bus around for reads
system.mem_ctrls.wrPerTurnAround::stdev      2.074069                       # Writes before turning the bus around for reads
system.mem_ctrls.wrPerTurnAround::16-17         41729     85.53%     85.53% # Writes before turning the bus around for reads
system.mem_ctrls.wrPerTurnAround::18-19          5333     10.93%     96.46% # Writes before turning the bus around for reads
system.mem_ctrls.wrPerTurnAround::20-21           515      1.06%     97.52% # Writes before turning the bus around for reads
system.mem_ctrls.wrPerTurnAround::22-23           403      0.83%     98.34% # Writes before turning the bus around for reads
system.mem_ctrls.wrPerTurnAround::24-25           355      0.73%     99.07% # Writes before turning the bus around for reads
system.mem_ctrls.wrPerTurnAround::26-27           264      0.54%     99.61% # Writes before turning the bus around for reads
system.mem_ctrls.wrPerTurnAround::28-29            72      0.15%     99.76% # Writes before turning the bus around for reads
system.mem_ctrls.wrPerTurnAround::30-31            10      0.02%     99.78% # Writes before turning the bus around for reads
system.mem_ctrls.wrPerTurnAround::32-33            12      0.02%     99.81% # Writes before turning the bus around for reads
system.mem_ctrls.wrPerTurnAround::34-35             7      0.01%     99.82% # Writes before turning the bus around for reads
system.mem_ctrls.wrPerTurnAround::36-37             6      0.01%     99.83% # Writes before turning the bus around for reads
system.mem_ctrls.wrPerTurnAround::38-39             6      0.01%     99.84% # Writes before turning the bus around for reads
system.mem_ctrls.wrPerTurnAround::40-41            12      0.02%     99.87% # Writes before turning the bus around for reads
system.mem_ctrls.wrPerTurnAround::42-43             4      0.01%     99.88% # Writes before turning the bus around for reads
system.mem_ctrls.wrPerTurnAround::44-45            10      0.02%     99.90% # Writes before turning the bus around for reads
system.mem_ctrls.wrPerTurnAround::46-47             4      0.01%     99.91% # Writes before turning the bus around for reads
system.mem_ctrls.wrPerTurnAround::48-49             2      0.00%     99.91% # Writes before turning the bus around for reads
system.mem_ctrls.wrPerTurnAround::50-51             8      0.02%     99.93% # Writes before turning the bus around for reads
system.mem_ctrls.wrPerTurnAround::52-53            16      0.03%     99.96% # Writes before turning the bus around for reads
system.mem_ctrls.wrPerTurnAround::54-55             8      0.02%     99.98% # Writes before turning the bus around for reads
system.mem_ctrls.wrPerTurnAround::56-57             5      0.01%     99.99% # Writes before turning the bus around for reads
system.mem_ctrls.wrPerTurnAround::58-59             2      0.00%     99.99% # Writes before turning the bus around for reads
system.mem_ctrls.wrPerTurnAround::60-61             1      0.00%     99.99% # Writes before turning the bus around for reads
system.mem_ctrls.wrPerTurnAround::64-65             1      0.00%     99.99% # Writes before turning the bus around for reads
system.mem_ctrls.wrPerTurnAround::66-67             1      0.00%    100.00% # Writes before turning the bus around for reads
system.mem_ctrls.wrPerTurnAround::76-77             1      0.00%    100.00% # Writes before turning the bus around for reads
system.mem_ctrls.wrPerTurnAround::82-83             1      0.00%    100.00% # Writes before turning the bus around for reads
system.mem_ctrls.wrPerTurnAround::total         48788                       # Writes before turning the bus around for reads
system.mem_ctrls.totQLat                  21478418518                       # Total ticks spent queuing
system.mem_ctrls.totMemAccLat             47019949768                       # Total ticks spent from burst creation until serviced by the DRAM
system.mem_ctrls.totBusLat                 6811075000                       # Total ticks spent in databus transfers
system.mem_ctrls.avgQLat                     15767.28                       # Average queueing delay per DRAM burst
system.mem_ctrls.avgBusLat                    5000.00                       # Average bus latency per DRAM burst
system.mem_ctrls.avgMemAccLat                34517.28                       # Average memory access latency per DRAM burst
system.mem_ctrls.avgRdBW                        34.40                       # Average DRAM read bandwidth in MiByte/s
system.mem_ctrls.avgWrBW                        20.39                       # Average achieved write bandwidth in MiByte/s
system.mem_ctrls.avgRdBWSys                      8.60                       # Average system read bandwidth in MiByte/s
system.mem_ctrls.avgWrBWSys                      7.25                       # Average system write bandwidth in MiByte/s
system.mem_ctrls.peakBW                      12800.00                       # Theoretical peak bandwidth in MiByte/s
system.mem_ctrls.busUtil                         0.43                       # Data bus utilization in percentage
system.mem_ctrls.busUtilRead                     0.27                       # Data bus utilization in percentage for reads
system.mem_ctrls.busUtilWrite                    0.16                       # Data bus utilization in percentage for writes
system.mem_ctrls.avgRdQLen                       1.03                       # Average read queue length when enqueuing
system.mem_ctrls.avgWrQLen                      23.97                       # Average write queue length when enqueuing
system.mem_ctrls.readRowHits                  1218249                       # Number of row buffer hits during reads
system.mem_ctrls.writeRowHits                  586236                       # Number of row buffer hits during writes
system.mem_ctrls.readRowHitRate                 89.43                       # Row buffer hit rate for reads
system.mem_ctrls.writeRowHitRate                72.60                       # Row buffer hit rate for writes
system.mem_ctrls.avgGap                    1009072.92                       # Average gap between requests
system.mem_ctrls.pageHitRate                    83.17                       # Row buffer hit rate, read and write combined
system.mem_ctrls_0.actEnergy               1349702760                       # Energy for activate commands per rank (pJ)
system.mem_ctrls_0.preEnergy                717384030                       # Energy for precharge commands per rank (pJ)
system.mem_ctrls_0.readEnergy              4899846420                       # Energy for read commands per rank (pJ)
system.mem_ctrls_0.writeEnergy             2180634120                       # Energy for write commands per rank (pJ)
system.mem_ctrls_0.refreshEnergy         19283715360.000004                       # Energy for refresh commands per rank (pJ)
system.mem_ctrls_0.actBackEnergy          28584725370                       # Energy for active background per rank (pJ)
system.mem_ctrls_0.preBackEnergy           1064979360                       # Energy for precharge background per rank (pJ)
system.mem_ctrls_0.actPowerDownEnergy     40460373840                       # Energy for active power-down per rank (pJ)
system.mem_ctrls_0.prePowerDownEnergy     21632051520                       # Energy for precharge power-down per rank (pJ)
system.mem_ctrls_0.selfRefreshEnergy     560229828300                       # Energy for self refresh per rank (pJ)
system.mem_ctrls_0.totalEnergy           680409823470                       # Total energy per rank (pJ)
system.mem_ctrls_0.averagePower            268.501448                       # Core power per rank (mW)
system.mem_ctrls_0.totalIdleTime         2468626966251                       # Total Idle time Per DRAM Rank
system.mem_ctrls_0.memoryStateTime::IDLE   1730435750                       # Time in different power states
system.mem_ctrls_0.memoryStateTime::REF    8185876250                       # Time in different power states
system.mem_ctrls_0.memoryStateTime::SREF 2323565156000                       # Time in different power states
system.mem_ctrls_0.memoryStateTime::PRE_PDN  56333552751                       # Time in different power states
system.mem_ctrls_0.memoryStateTime::ACT   55557850249                       # Time in different power states
system.mem_ctrls_0.memoryStateTime::ACT_PDN  88728257500                       # Time in different power states
system.mem_ctrls_1.actEnergy               1257539640                       # Energy for activate commands per rank (pJ)
system.mem_ctrls_1.preEnergy                668390580                       # Energy for precharge commands per rank (pJ)
system.mem_ctrls_1.readEnergy              4826368680                       # Energy for read commands per rank (pJ)
system.mem_ctrls_1.writeEnergy             2034150480                       # Energy for write commands per rank (pJ)
system.mem_ctrls_1.refreshEnergy         19675855680.000004                       # Energy for refresh commands per rank (pJ)
system.mem_ctrls_1.actBackEnergy          28419739440                       # Energy for active background per rank (pJ)
system.mem_ctrls_1.preBackEnergy           1063920480                       # Energy for precharge background per rank (pJ)
system.mem_ctrls_1.actPowerDownEnergy     41261323020                       # Energy for active power-down per rank (pJ)
system.mem_ctrls_1.prePowerDownEnergy     22471915200                       # Energy for precharge power-down per rank (pJ)
system.mem_ctrls_1.selfRefreshEnergy     559476837480                       # Energy for self refresh per rank (pJ)
system.mem_ctrls_1.totalEnergy           681162972630                       # Total energy per rank (pJ)
system.mem_ctrls_1.averagePower            268.798654                       # Core power per rank (mW)
system.mem_ctrls_1.totalIdleTime         2468991189750                       # Total Idle time Per DRAM Rank
system.mem_ctrls_1.memoryStateTime::IDLE   1727775250                       # Time in different power states
system.mem_ctrls_1.memoryStateTime::REF    8353180000                       # Time in different power states
system.mem_ctrls_1.memoryStateTime::SREF 2319985145000                       # Time in different power states
system.mem_ctrls_1.memoryStateTime::PRE_PDN  58520448500                       # Time in different power states
system.mem_ctrls_1.memoryStateTime::ACT   55028983500                       # Time in different power states
system.mem_ctrls_1.memoryStateTime::ACT_PDN  90485596250                       # Time in different power states
system.pwrStateResidencyTicks::UNDEFINED 2534101128500                       # Cumulative time (in ticks) in various power states
system.bridge.pwrStateResidencyTicks::UNDEFINED 2534101128500                       # Cumulative time (in ticks) in various power states
system.cpu_voltage_domain.voltage                   1                       # Voltage in Volts
system.cpu_clk_domain.clock                       500                       # Clock period in ticks
system.cpu0.dtb.fetch_hits                          0                       # ITB hits
system.cpu0.dtb.fetch_misses                        0                       # ITB misses
system.cpu0.dtb.fetch_acv                           0                       # ITB acv
system.cpu0.dtb.fetch_accesses                      0                       # ITB accesses
system.cpu0.dtb.read_hits                    11654666                       # DTB read hits
system.cpu0.dtb.read_misses                      3106                       # DTB read misses
system.cpu0.dtb.read_acv                            0                       # DTB read access violations
system.cpu0.dtb.read_accesses                  246038                       # DTB read accesses
system.cpu0.dtb.write_hits                    5666439                       # DTB write hits
system.cpu0.dtb.write_misses                      348                       # DTB write misses
system.cpu0.dtb.write_acv                          33                       # DTB write access violations
system.cpu0.dtb.write_accesses                 108494                       # DTB write accesses
system.cpu0.dtb.data_hits                    17321105                       # DTB hits
system.cpu0.dtb.data_misses                      3454                       # DTB misses
system.cpu0.dtb.data_acv                           33                       # DTB access violations
system.cpu0.dtb.data_accesses                  354532                       # DTB accesses
system.cpu0.itb.fetch_hits                    2553027                       # ITB hits
system.cpu0.itb.fetch_misses                     1280                       # ITB misses
system.cpu0.itb.fetch_acv                           0                       # ITB acv
system.cpu0.itb.fetch_accesses                2554307                       # ITB accesses
system.cpu0.itb.read_hits                           0                       # DTB read hits
system.cpu0.itb.read_misses                         0                       # DTB read misses
system.cpu0.itb.read_acv                            0                       # DTB read access violations
system.cpu0.itb.read_accesses                       0                       # DTB read accesses
system.cpu0.itb.write_hits                          0                       # DTB write hits
system.cpu0.itb.write_misses                        0                       # DTB write misses
system.cpu0.itb.write_acv                           0                       # DTB write access violations
system.cpu0.itb.write_accesses                      0                       # DTB write accesses
system.cpu0.itb.data_hits                           0                       # DTB hits
system.cpu0.itb.data_misses                         0                       # DTB misses
system.cpu0.itb.data_acv                            0                       # DTB access violations
system.cpu0.itb.data_accesses                       0                       # DTB accesses
system.cpu0.numPwrStateTransitions              14130                       # Number of power state transitions
system.cpu0.pwrStateClkGateDist::samples         7065                       # Distribution of time spent in the clock gated state
system.cpu0.pwrStateClkGateDist::mean    324367208.421798                       # Distribution of time spent in the clock gated state
system.cpu0.pwrStateClkGateDist::stdev   449393524.560240                       # Distribution of time spent in the clock gated state
system.cpu0.pwrStateClkGateDist::1000-5e+10         7065    100.00%    100.00% # Distribution of time spent in the clock gated state
system.cpu0.pwrStateClkGateDist::min_value       100000                       # Distribution of time spent in the clock gated state
system.cpu0.pwrStateClkGateDist::max_value   2000000000                       # Distribution of time spent in the clock gated state
system.cpu0.pwrStateClkGateDist::total           7065                       # Distribution of time spent in the clock gated state
system.cpu0.pwrStateResidencyTicks::ON   242446801000                       # Cumulative time (in ticks) in various power states
system.cpu0.pwrStateResidencyTicks::CLK_GATED 2291654327500                       # Cumulative time (in ticks) in various power states
system.cpu0.numCycles                      5068202257                       # number of cpu cycles simulated
system.cpu0.numWorkItemsStarted                     0                       # number of work items this cpu started
system.cpu0.numWorkItemsCompleted                   0                       # number of work items this cpu completed
system.cpu0.kern.inst.arm                           0                       # number of arm instructions executed
system.cpu0.kern.inst.quiesce                    7065                       # number of quiesce instructions executed
system.cpu0.kern.callpal::cserve                    1      0.00%      0.00% # number of callpals executed
system.cpu0.kern.callpal::wripir                 1061      0.82%      0.82% # number of callpals executed
system.cpu0.kern.callpal::wrmces                    1      0.00%      0.82% # number of callpals executed
system.cpu0.kern.callpal::wrfen                     1      0.00%      0.82% # number of callpals executed
system.cpu0.kern.callpal::wrvptptr                  1      0.00%      0.83% # number of callpals executed
system.cpu0.kern.callpal::swpctx                 2072      1.61%      2.43% # number of callpals executed
system.cpu0.kern.callpal::tbi                      11      0.01%      2.44% # number of callpals executed
system.cpu0.kern.callpal::wrent                     7      0.01%      2.45% # number of callpals executed
system.cpu0.kern.callpal::swpipl               116394     90.21%     92.65% # number of callpals executed
system.cpu0.kern.callpal::rdps                   5332      4.13%     96.79% # number of callpals executed
system.cpu0.kern.callpal::wrkgp                     1      0.00%     96.79% # number of callpals executed
system.cpu0.kern.callpal::wrusp                     4      0.00%     96.79% # number of callpals executed
system.cpu0.kern.callpal::rdusp                     3      0.00%     96.79% # number of callpals executed
system.cpu0.kern.callpal::whami                     2      0.00%     96.79% # number of callpals executed
system.cpu0.kern.callpal::rti                    3930      3.05%     99.84% # number of callpals executed
system.cpu0.kern.callpal::callsys                 151      0.12%     99.96% # number of callpals executed
system.cpu0.kern.callpal::imb                      57      0.04%    100.00% # number of callpals executed
system.cpu0.kern.callpal::total                129029                       # number of callpals executed
system.cpu0.kern.inst.hwrei                    137105                       # number of hwrei instructions executed
system.cpu0.kern.mode_switch::kernel             5873                       # number of protection mode switches
system.cpu0.kern.mode_switch::user                482                       # number of protection mode switches
system.cpu0.kern.mode_switch::idle                  0                       # number of protection mode switches
system.cpu0.kern.mode_good::kernel                481                      
system.cpu0.kern.mode_good::user                  482                      
system.cpu0.kern.mode_good::idle                    0                      
system.cpu0.kern.mode_switch_good::kernel     0.081900                       # fraction of useful protection mode switches
system.cpu0.kern.mode_switch_good::user             1                       # fraction of useful protection mode switches
system.cpu0.kern.mode_switch_good::idle           nan                       # fraction of useful protection mode switches
system.cpu0.kern.mode_switch_good::total     0.151534                       # fraction of useful protection mode switches
system.cpu0.kern.mode_ticks::kernel      2531048785500     99.88%     99.88% # number of ticks spent at the given mode
system.cpu0.kern.mode_ticks::user          3050826000      0.12%    100.00% # number of ticks spent at the given mode
system.cpu0.kern.mode_ticks::idle                   0      0.00%    100.00% # number of ticks spent at the given mode
system.cpu0.kern.swap_context                    2073                       # number of times the context was actually changed
system.cpu0.kern.ipl_count::0                   47059     38.06%     38.06% # number of times we switched to this ipl
system.cpu0.kern.ipl_count::21                     11      0.01%     38.07% # number of times we switched to this ipl
system.cpu0.kern.ipl_count::22                   2538      2.05%     40.13% # number of times we switched to this ipl
system.cpu0.kern.ipl_count::30                    760      0.61%     40.74% # number of times we switched to this ipl
system.cpu0.kern.ipl_count::31                  73264     59.26%    100.00% # number of times we switched to this ipl
system.cpu0.kern.ipl_count::total              123632                       # number of times we switched to this ipl
system.cpu0.kern.ipl_good::0                    46906     48.68%     48.68% # number of times we switched to this ipl from a different ipl
system.cpu0.kern.ipl_good::21                      11      0.01%     48.69% # number of times we switched to this ipl from a different ipl
system.cpu0.kern.ipl_good::22                    2538      2.63%     51.32% # number of times we switched to this ipl from a different ipl
system.cpu0.kern.ipl_good::30                     760      0.79%     52.11% # number of times we switched to this ipl from a different ipl
system.cpu0.kern.ipl_good::31                   46149     47.89%    100.00% # number of times we switched to this ipl from a different ipl
system.cpu0.kern.ipl_good::total                96364                       # number of times we switched to this ipl from a different ipl
system.cpu0.kern.ipl_ticks::0            2435823698500     96.12%     96.12% # number of cycles we spent at this ipl
system.cpu0.kern.ipl_ticks::21               10869000      0.00%     96.12% # number of cycles we spent at this ipl
system.cpu0.kern.ipl_ticks::22             1567665500      0.06%     96.18% # number of cycles we spent at this ipl
system.cpu0.kern.ipl_ticks::30             1087225000      0.04%     96.23% # number of cycles we spent at this ipl
system.cpu0.kern.ipl_ticks::31            95610155500      3.77%    100.00% # number of cycles we spent at this ipl
system.cpu0.kern.ipl_ticks::total        2534099613500                       # number of cycles we spent at this ipl
system.cpu0.kern.ipl_used::0                 0.996749                       # fraction of swpipl calls that actually changed the ipl
system.cpu0.kern.ipl_used::21                       1                       # fraction of swpipl calls that actually changed the ipl
system.cpu0.kern.ipl_used::22                       1                       # fraction of swpipl calls that actually changed the ipl
system.cpu0.kern.ipl_used::30                       1                       # fraction of swpipl calls that actually changed the ipl
system.cpu0.kern.ipl_used::31                0.629900                       # fraction of swpipl calls that actually changed the ipl
system.cpu0.kern.ipl_used::total             0.779442                       # fraction of swpipl calls that actually changed the ipl
system.cpu0.committedInsts                   68388594                       # Number of instructions committed
system.cpu0.committedOps                     68388594                       # Number of ops (including micro ops) committed
system.cpu0.num_int_alu_accesses             66069682                       # Number of integer alu accesses
system.cpu0.num_fp_alu_accesses                234816                       # Number of float alu accesses
system.cpu0.num_vec_alu_accesses                    0                       # Number of vector alu accesses
system.cpu0.num_func_calls                    2231764                       # number of times a function call or return occured
system.cpu0.num_conditional_control_insts      9106832                       # number of instructions that are conditional controls
system.cpu0.num_int_insts                    66069682                       # number of integer instructions
system.cpu0.num_fp_insts                       234816                       # number of float instructions
system.cpu0.num_vec_insts                           0                       # number of vector instructions
system.cpu0.num_int_register_reads           89726679                       # number of times the integer registers were read
system.cpu0.num_int_register_writes          50364651                       # number of times the integer registers were written
system.cpu0.num_fp_register_reads               81205                       # number of times the floating registers were read
system.cpu0.num_fp_register_writes              82617                       # number of times the floating registers were written
system.cpu0.num_vec_register_reads                  0                       # number of times the vector registers were read
system.cpu0.num_vec_register_writes                 0                       # number of times the vector registers were written
system.cpu0.num_mem_refs                     17346909                       # number of memory refs
system.cpu0.num_load_insts                   11669514                       # Number of load instructions
system.cpu0.num_store_insts                   5677395                       # Number of store instructions
system.cpu0.num_idle_cycles              4583308654.998191                       # Number of idle cycles
system.cpu0.num_busy_cycles              484893602.001809                       # Number of busy cycles
system.cpu0.not_idle_fraction                0.095674                       # Percentage of non-idle cycles
system.cpu0.idle_fraction                    0.904326                       # Percentage of idle cycles
system.cpu0.Branches                         11760771                       # Number of branches fetched
system.cpu0.op_class::No_OpClass              1397995      2.04%      2.04% # Class of executed instruction
system.cpu0.op_class::IntAlu                 48465900     70.86%     72.91% # Class of executed instruction
system.cpu0.op_class::IntMult                  152419      0.22%     73.13% # Class of executed instruction
system.cpu0.op_class::IntDiv                        0      0.00%     73.13% # Class of executed instruction
system.cpu0.op_class::FloatAdd                  95566      0.14%     73.27% # Class of executed instruction
system.cpu0.op_class::FloatCmp                      0      0.00%     73.27% # Class of executed instruction
system.cpu0.op_class::FloatCvt                      0      0.00%     73.27% # Class of executed instruction
system.cpu0.op_class::FloatMult                     0      0.00%     73.27% # Class of executed instruction
system.cpu0.op_class::FloatMultAcc                  0      0.00%     73.27% # Class of executed instruction
system.cpu0.op_class::FloatDiv                   2102      0.00%     73.27% # Class of executed instruction
system.cpu0.op_class::FloatMisc                     0      0.00%     73.27% # Class of executed instruction
system.cpu0.op_class::FloatSqrt                     0      0.00%     73.27% # Class of executed instruction
system.cpu0.op_class::SimdAdd                       0      0.00%     73.27% # Class of executed instruction
system.cpu0.op_class::SimdAddAcc                    0      0.00%     73.27% # Class of executed instruction
system.cpu0.op_class::SimdAlu                       0      0.00%     73.27% # Class of executed instruction
system.cpu0.op_class::SimdCmp                       0      0.00%     73.27% # Class of executed instruction
system.cpu0.op_class::SimdCvt                       0      0.00%     73.27% # Class of executed instruction
system.cpu0.op_class::SimdMisc                      0      0.00%     73.27% # Class of executed instruction
system.cpu0.op_class::SimdMult                      0      0.00%     73.27% # Class of executed instruction
system.cpu0.op_class::SimdMultAcc                   0      0.00%     73.27% # Class of executed instruction
system.cpu0.op_class::SimdShift                     0      0.00%     73.27% # Class of executed instruction
system.cpu0.op_class::SimdShiftAcc                  0      0.00%     73.27% # Class of executed instruction
system.cpu0.op_class::SimdSqrt                      0      0.00%     73.27% # Class of executed instruction
system.cpu0.op_class::SimdFloatAdd                  0      0.00%     73.27% # Class of executed instruction
system.cpu0.op_class::SimdFloatAlu                  0      0.00%     73.27% # Class of executed instruction
system.cpu0.op_class::SimdFloatCmp                  0      0.00%     73.27% # Class of executed instruction
system.cpu0.op_class::SimdFloatCvt                  0      0.00%     73.27% # Class of executed instruction
system.cpu0.op_class::SimdFloatDiv                  0      0.00%     73.27% # Class of executed instruction
system.cpu0.op_class::SimdFloatMisc                 0      0.00%     73.27% # Class of executed instruction
system.cpu0.op_class::SimdFloatMult                 0      0.00%     73.27% # Class of executed instruction
system.cpu0.op_class::SimdFloatMultAcc              0      0.00%     73.27% # Class of executed instruction
system.cpu0.op_class::SimdFloatSqrt                 0      0.00%     73.27% # Class of executed instruction
system.cpu0.op_class::MemRead                11922284     17.43%     90.71% # Class of executed instruction
system.cpu0.op_class::MemWrite                5627532      8.23%     98.94% # Class of executed instruction
system.cpu0.op_class::FloatMemRead              70333      0.10%     99.04% # Class of executed instruction
system.cpu0.op_class::FloatMemWrite             66815      0.10%     99.14% # Class of executed instruction
system.cpu0.op_class::IprAccess                591135      0.86%    100.00% # Class of executed instruction
system.cpu0.op_class::InstPrefetch                  0      0.00%    100.00% # Class of executed instruction
system.cpu0.op_class::total                  68392081                       # Class of executed instruction
system.cpu0.dcache.tags.pwrStateResidencyTicks::UNDEFINED 2534101128500                       # Cumulative time (in ticks) in various power states
system.cpu0.dcache.tags.replacements          3120185                       # number of replacements
system.cpu0.dcache.tags.tagsinuse         2026.586420                       # Cycle average of tags in use
system.cpu0.dcache.tags.total_refs           14152718                       # Total number of references to valid blocks.
system.cpu0.dcache.tags.sampled_refs          3120185                       # Sample count of references to valid blocks.
system.cpu0.dcache.tags.avg_refs             4.535859                       # Average number of references to valid blocks.
system.cpu0.dcache.tags.warmup_cycle        265721500                       # Cycle when the warmup percentage was hit.
system.cpu0.dcache.tags.occ_blocks::cpu0.data  2026.586420                       # Average occupied blocks per requestor
system.cpu0.dcache.tags.occ_percent::cpu0.data     0.989544                       # Average percentage of cache occupancy
system.cpu0.dcache.tags.occ_percent::total     0.989544                       # Average percentage of cache occupancy
system.cpu0.dcache.tags.occ_task_id_blocks::1024         2048                       # Occupied blocks per task id
system.cpu0.dcache.tags.age_task_id_blocks_1024::0          101                       # Occupied blocks per task id
system.cpu0.dcache.tags.age_task_id_blocks_1024::1          925                       # Occupied blocks per task id
system.cpu0.dcache.tags.age_task_id_blocks_1024::2         1022                       # Occupied blocks per task id
system.cpu0.dcache.tags.occ_task_id_percent::1024            1                       # Percentage of cache occupancy per task id
system.cpu0.dcache.tags.tag_accesses         20492505                       # Number of tag accesses
system.cpu0.dcache.tags.data_accesses        20492505                       # Number of data accesses
system.cpu0.dcache.pwrStateResidencyTicks::UNDEFINED 2534101128500                       # Cumulative time (in ticks) in various power states
system.cpu0.dcache.ReadReq_hits::cpu0.data      9287557                       # number of ReadReq hits
system.cpu0.dcache.ReadReq_hits::total        9287557                       # number of ReadReq hits
system.cpu0.dcache.WriteReq_hits::cpu0.data      4401501                       # number of WriteReq hits
system.cpu0.dcache.WriteReq_hits::total       4401501                       # number of WriteReq hits
system.cpu0.dcache.LoadLockedReq_hits::cpu0.data       211599                       # number of LoadLockedReq hits
system.cpu0.dcache.LoadLockedReq_hits::total       211599                       # number of LoadLockedReq hits
system.cpu0.dcache.StoreCondReq_hits::cpu0.data       215076                       # number of StoreCondReq hits
system.cpu0.dcache.StoreCondReq_hits::total       215076                       # number of StoreCondReq hits
system.cpu0.dcache.demand_hits::cpu0.data     13689058                       # number of demand (read+write) hits
system.cpu0.dcache.demand_hits::total        13689058                       # number of demand (read+write) hits
system.cpu0.dcache.overall_hits::cpu0.data     13689058                       # number of overall hits
system.cpu0.dcache.overall_hits::total       13689058                       # number of overall hits
system.cpu0.dcache.ReadReq_misses::cpu0.data      2143880                       # number of ReadReq misses
system.cpu0.dcache.ReadReq_misses::total      2143880                       # number of ReadReq misses
system.cpu0.dcache.WriteReq_misses::cpu0.data      1036795                       # number of WriteReq misses
system.cpu0.dcache.WriteReq_misses::total      1036795                       # number of WriteReq misses
system.cpu0.dcache.LoadLockedReq_misses::cpu0.data        18150                       # number of LoadLockedReq misses
system.cpu0.dcache.LoadLockedReq_misses::total        18150                       # number of LoadLockedReq misses
system.cpu0.dcache.StoreCondReq_misses::cpu0.data         9793                       # number of StoreCondReq misses
system.cpu0.dcache.StoreCondReq_misses::total         9793                       # number of StoreCondReq misses
system.cpu0.dcache.demand_misses::cpu0.data      3180675                       # number of demand (read+write) misses
system.cpu0.dcache.demand_misses::total       3180675                       # number of demand (read+write) misses
system.cpu0.dcache.overall_misses::cpu0.data      3180675                       # number of overall misses
system.cpu0.dcache.overall_misses::total      3180675                       # number of overall misses
system.cpu0.dcache.ReadReq_miss_latency::cpu0.data  51202254000                       # number of ReadReq miss cycles
system.cpu0.dcache.ReadReq_miss_latency::total  51202254000                       # number of ReadReq miss cycles
system.cpu0.dcache.WriteReq_miss_latency::cpu0.data  65529238000                       # number of WriteReq miss cycles
system.cpu0.dcache.WriteReq_miss_latency::total  65529238000                       # number of WriteReq miss cycles
system.cpu0.dcache.LoadLockedReq_miss_latency::cpu0.data    210273500                       # number of LoadLockedReq miss cycles
system.cpu0.dcache.LoadLockedReq_miss_latency::total    210273500                       # number of LoadLockedReq miss cycles
system.cpu0.dcache.StoreCondReq_miss_latency::cpu0.data     52768000                       # number of StoreCondReq miss cycles
system.cpu0.dcache.StoreCondReq_miss_latency::total     52768000                       # number of StoreCondReq miss cycles
system.cpu0.dcache.demand_miss_latency::cpu0.data 116731492000                       # number of demand (read+write) miss cycles
system.cpu0.dcache.demand_miss_latency::total 116731492000                       # number of demand (read+write) miss cycles
system.cpu0.dcache.overall_miss_latency::cpu0.data 116731492000                       # number of overall miss cycles
system.cpu0.dcache.overall_miss_latency::total 116731492000                       # number of overall miss cycles
system.cpu0.dcache.ReadReq_accesses::cpu0.data     11431437                       # number of ReadReq accesses(hits+misses)
system.cpu0.dcache.ReadReq_accesses::total     11431437                       # number of ReadReq accesses(hits+misses)
system.cpu0.dcache.WriteReq_accesses::cpu0.data      5438296                       # number of WriteReq accesses(hits+misses)
system.cpu0.dcache.WriteReq_accesses::total      5438296                       # number of WriteReq accesses(hits+misses)
system.cpu0.dcache.LoadLockedReq_accesses::cpu0.data       229749                       # number of LoadLockedReq accesses(hits+misses)
system.cpu0.dcache.LoadLockedReq_accesses::total       229749                       # number of LoadLockedReq accesses(hits+misses)
system.cpu0.dcache.StoreCondReq_accesses::cpu0.data       224869                       # number of StoreCondReq accesses(hits+misses)
system.cpu0.dcache.StoreCondReq_accesses::total       224869                       # number of StoreCondReq accesses(hits+misses)
system.cpu0.dcache.demand_accesses::cpu0.data     16869733                       # number of demand (read+write) accesses
system.cpu0.dcache.demand_accesses::total     16869733                       # number of demand (read+write) accesses
system.cpu0.dcache.overall_accesses::cpu0.data     16869733                       # number of overall (read+write) accesses
system.cpu0.dcache.overall_accesses::total     16869733                       # number of overall (read+write) accesses
system.cpu0.dcache.ReadReq_miss_rate::cpu0.data     0.187542                       # miss rate for ReadReq accesses
system.cpu0.dcache.ReadReq_miss_rate::total     0.187542                       # miss rate for ReadReq accesses
system.cpu0.dcache.WriteReq_miss_rate::cpu0.data     0.190647                       # miss rate for WriteReq accesses
system.cpu0.dcache.WriteReq_miss_rate::total     0.190647                       # miss rate for WriteReq accesses
system.cpu0.dcache.LoadLockedReq_miss_rate::cpu0.data     0.078999                       # miss rate for LoadLockedReq accesses
system.cpu0.dcache.LoadLockedReq_miss_rate::total     0.078999                       # miss rate for LoadLockedReq accesses
system.cpu0.dcache.StoreCondReq_miss_rate::cpu0.data     0.043550                       # miss rate for StoreCondReq accesses
system.cpu0.dcache.StoreCondReq_miss_rate::total     0.043550                       # miss rate for StoreCondReq accesses
system.cpu0.dcache.demand_miss_rate::cpu0.data     0.188543                       # miss rate for demand accesses
system.cpu0.dcache.demand_miss_rate::total     0.188543                       # miss rate for demand accesses
system.cpu0.dcache.overall_miss_rate::cpu0.data     0.188543                       # miss rate for overall accesses
system.cpu0.dcache.overall_miss_rate::total     0.188543                       # miss rate for overall accesses
system.cpu0.dcache.ReadReq_avg_miss_latency::cpu0.data 23882.985055                       # average ReadReq miss latency
system.cpu0.dcache.ReadReq_avg_miss_latency::total 23882.985055                       # average ReadReq miss latency
system.cpu0.dcache.WriteReq_avg_miss_latency::cpu0.data 63203.659354                       # average WriteReq miss latency
system.cpu0.dcache.WriteReq_avg_miss_latency::total 63203.659354                       # average WriteReq miss latency
system.cpu0.dcache.LoadLockedReq_avg_miss_latency::cpu0.data 11585.316804                       # average LoadLockedReq miss latency
system.cpu0.dcache.LoadLockedReq_avg_miss_latency::total 11585.316804                       # average LoadLockedReq miss latency
system.cpu0.dcache.StoreCondReq_avg_miss_latency::cpu0.data  5388.338609                       # average StoreCondReq miss latency
system.cpu0.dcache.StoreCondReq_avg_miss_latency::total  5388.338609                       # average StoreCondReq miss latency
system.cpu0.dcache.demand_avg_miss_latency::cpu0.data 36700.226210                       # average overall miss latency
system.cpu0.dcache.demand_avg_miss_latency::total 36700.226210                       # average overall miss latency
system.cpu0.dcache.overall_avg_miss_latency::cpu0.data 36700.226210                       # average overall miss latency
system.cpu0.dcache.overall_avg_miss_latency::total 36700.226210                       # average overall miss latency
system.cpu0.dcache.blocked_cycles::no_mshrs            0                       # number of cycles access was blocked
system.cpu0.dcache.blocked_cycles::no_targets            0                       # number of cycles access was blocked
system.cpu0.dcache.blocked::no_mshrs                0                       # number of cycles access was blocked
system.cpu0.dcache.blocked::no_targets              0                       # number of cycles access was blocked
system.cpu0.dcache.avg_blocked_cycles::no_mshrs          nan                       # average number of cycles each access was blocked
system.cpu0.dcache.avg_blocked_cycles::no_targets          nan                       # average number of cycles each access was blocked
system.cpu0.dcache.writebacks::writebacks      2667582                       # number of writebacks
system.cpu0.dcache.writebacks::total          2667582                       # number of writebacks
system.cpu0.dcache.ReadReq_mshr_misses::cpu0.data      2143880                       # number of ReadReq MSHR misses
system.cpu0.dcache.ReadReq_mshr_misses::total      2143880                       # number of ReadReq MSHR misses
system.cpu0.dcache.WriteReq_mshr_misses::cpu0.data      1036795                       # number of WriteReq MSHR misses
system.cpu0.dcache.WriteReq_mshr_misses::total      1036795                       # number of WriteReq MSHR misses
system.cpu0.dcache.LoadLockedReq_mshr_misses::cpu0.data        18150                       # number of LoadLockedReq MSHR misses
system.cpu0.dcache.LoadLockedReq_mshr_misses::total        18150                       # number of LoadLockedReq MSHR misses
system.cpu0.dcache.StoreCondReq_mshr_misses::cpu0.data         9793                       # number of StoreCondReq MSHR misses
system.cpu0.dcache.StoreCondReq_mshr_misses::total         9793                       # number of StoreCondReq MSHR misses
system.cpu0.dcache.demand_mshr_misses::cpu0.data      3180675                       # number of demand (read+write) MSHR misses
system.cpu0.dcache.demand_mshr_misses::total      3180675                       # number of demand (read+write) MSHR misses
system.cpu0.dcache.overall_mshr_misses::cpu0.data      3180675                       # number of overall MSHR misses
system.cpu0.dcache.overall_mshr_misses::total      3180675                       # number of overall MSHR misses
system.cpu0.dcache.ReadReq_mshr_uncacheable::cpu0.data         5222                       # number of ReadReq MSHR uncacheable
system.cpu0.dcache.ReadReq_mshr_uncacheable::total         5222                       # number of ReadReq MSHR uncacheable
system.cpu0.dcache.WriteReq_mshr_uncacheable::cpu0.data         9917                       # number of WriteReq MSHR uncacheable
system.cpu0.dcache.WriteReq_mshr_uncacheable::total         9917                       # number of WriteReq MSHR uncacheable
system.cpu0.dcache.overall_mshr_uncacheable_misses::cpu0.data        15139                       # number of overall MSHR uncacheable misses
system.cpu0.dcache.overall_mshr_uncacheable_misses::total        15139                       # number of overall MSHR uncacheable misses
system.cpu0.dcache.ReadReq_mshr_miss_latency::cpu0.data  49058374000                       # number of ReadReq MSHR miss cycles
system.cpu0.dcache.ReadReq_mshr_miss_latency::total  49058374000                       # number of ReadReq MSHR miss cycles
system.cpu0.dcache.WriteReq_mshr_miss_latency::cpu0.data  64492443000                       # number of WriteReq MSHR miss cycles
system.cpu0.dcache.WriteReq_mshr_miss_latency::total  64492443000                       # number of WriteReq MSHR miss cycles
system.cpu0.dcache.LoadLockedReq_mshr_miss_latency::cpu0.data    192123500                       # number of LoadLockedReq MSHR miss cycles
system.cpu0.dcache.LoadLockedReq_mshr_miss_latency::total    192123500                       # number of LoadLockedReq MSHR miss cycles
system.cpu0.dcache.StoreCondReq_mshr_miss_latency::cpu0.data     42975000                       # number of StoreCondReq MSHR miss cycles
system.cpu0.dcache.StoreCondReq_mshr_miss_latency::total     42975000                       # number of StoreCondReq MSHR miss cycles
system.cpu0.dcache.demand_mshr_miss_latency::cpu0.data 113550817000                       # number of demand (read+write) MSHR miss cycles
system.cpu0.dcache.demand_mshr_miss_latency::total 113550817000                       # number of demand (read+write) MSHR miss cycles
system.cpu0.dcache.overall_mshr_miss_latency::cpu0.data 113550817000                       # number of overall MSHR miss cycles
system.cpu0.dcache.overall_mshr_miss_latency::total 113550817000                       # number of overall MSHR miss cycles
system.cpu0.dcache.ReadReq_mshr_uncacheable_latency::cpu0.data   1189369000                       # number of ReadReq MSHR uncacheable cycles
system.cpu0.dcache.ReadReq_mshr_uncacheable_latency::total   1189369000                       # number of ReadReq MSHR uncacheable cycles
system.cpu0.dcache.overall_mshr_uncacheable_latency::cpu0.data   1189369000                       # number of overall MSHR uncacheable cycles
system.cpu0.dcache.overall_mshr_uncacheable_latency::total   1189369000                       # number of overall MSHR uncacheable cycles
system.cpu0.dcache.ReadReq_mshr_miss_rate::cpu0.data     0.187542                       # mshr miss rate for ReadReq accesses
system.cpu0.dcache.ReadReq_mshr_miss_rate::total     0.187542                       # mshr miss rate for ReadReq accesses
system.cpu0.dcache.WriteReq_mshr_miss_rate::cpu0.data     0.190647                       # mshr miss rate for WriteReq accesses
system.cpu0.dcache.WriteReq_mshr_miss_rate::total     0.190647                       # mshr miss rate for WriteReq accesses
system.cpu0.dcache.LoadLockedReq_mshr_miss_rate::cpu0.data     0.078999                       # mshr miss rate for LoadLockedReq accesses
system.cpu0.dcache.LoadLockedReq_mshr_miss_rate::total     0.078999                       # mshr miss rate for LoadLockedReq accesses
system.cpu0.dcache.StoreCondReq_mshr_miss_rate::cpu0.data     0.043550                       # mshr miss rate for StoreCondReq accesses
system.cpu0.dcache.StoreCondReq_mshr_miss_rate::total     0.043550                       # mshr miss rate for StoreCondReq accesses
system.cpu0.dcache.demand_mshr_miss_rate::cpu0.data     0.188543                       # mshr miss rate for demand accesses
system.cpu0.dcache.demand_mshr_miss_rate::total     0.188543                       # mshr miss rate for demand accesses
system.cpu0.dcache.overall_mshr_miss_rate::cpu0.data     0.188543                       # mshr miss rate for overall accesses
system.cpu0.dcache.overall_mshr_miss_rate::total     0.188543                       # mshr miss rate for overall accesses
system.cpu0.dcache.ReadReq_avg_mshr_miss_latency::cpu0.data 22882.985055                       # average ReadReq mshr miss latency
system.cpu0.dcache.ReadReq_avg_mshr_miss_latency::total 22882.985055                       # average ReadReq mshr miss latency
system.cpu0.dcache.WriteReq_avg_mshr_miss_latency::cpu0.data 62203.659354                       # average WriteReq mshr miss latency
system.cpu0.dcache.WriteReq_avg_mshr_miss_latency::total 62203.659354                       # average WriteReq mshr miss latency
system.cpu0.dcache.LoadLockedReq_avg_mshr_miss_latency::cpu0.data 10585.316804                       # average LoadLockedReq mshr miss latency
system.cpu0.dcache.LoadLockedReq_avg_mshr_miss_latency::total 10585.316804                       # average LoadLockedReq mshr miss latency
system.cpu0.dcache.StoreCondReq_avg_mshr_miss_latency::cpu0.data  4388.338609                       # average StoreCondReq mshr miss latency
system.cpu0.dcache.StoreCondReq_avg_mshr_miss_latency::total  4388.338609                       # average StoreCondReq mshr miss latency
system.cpu0.dcache.demand_avg_mshr_miss_latency::cpu0.data 35700.226210                       # average overall mshr miss latency
system.cpu0.dcache.demand_avg_mshr_miss_latency::total 35700.226210                       # average overall mshr miss latency
system.cpu0.dcache.overall_avg_mshr_miss_latency::cpu0.data 35700.226210                       # average overall mshr miss latency
system.cpu0.dcache.overall_avg_mshr_miss_latency::total 35700.226210                       # average overall mshr miss latency
system.cpu0.dcache.ReadReq_avg_mshr_uncacheable_latency::cpu0.data 227761.202604                       # average ReadReq mshr uncacheable latency
system.cpu0.dcache.ReadReq_avg_mshr_uncacheable_latency::total 227761.202604                       # average ReadReq mshr uncacheable latency
system.cpu0.dcache.overall_avg_mshr_uncacheable_latency::cpu0.data 78563.247242                       # average overall mshr uncacheable latency
system.cpu0.dcache.overall_avg_mshr_uncacheable_latency::total 78563.247242                       # average overall mshr uncacheable latency
system.cpu0.icache.tags.pwrStateResidencyTicks::UNDEFINED 2534101128500                       # Cumulative time (in ticks) in various power states
system.cpu0.icache.tags.replacements          2997447                       # number of replacements
system.cpu0.icache.tags.tagsinuse          511.852455                       # Cycle average of tags in use
[...]
system.membus.pkt_size::total                 2059109                       # Cumulative packet size per connected master and slave (bytes)
system.membus.snoops                             3610                       # Total snoops (count)
system.membus.snoopTraffic                        416                       # Total snoop traffic (bytes)
system.membus.snoop_fanout::samples             99112                       # Request fanout histogram
system.membus.snoop_fanout::mean             0.019927                       # Request fanout histogram
system.membus.snoop_fanout::stdev            0.139750                       # Request fanout histogram
system.membus.snoop_fanout::underflows              0      0.00%      0.00% # Request fanout histogram
system.membus.snoop_fanout::0                   97137     98.01%     98.01% # Request fanout histogram
system.membus.snoop_fanout::1                    1975      1.99%    100.00% # Request fanout histogram
system.membus.snoop_fanout::2                       0      0.00%    100.00% # Request fanout histogram
system.membus.snoop_fanout::overflows               0      0.00%    100.00% # Request fanout histogram
system.membus.snoop_fanout::min_value               0                       # Request fanout histogram
system.membus.snoop_fanout::max_value               1                       # Request fanout histogram
system.membus.snoop_fanout::total               99112                       # Request fanout histogram
system.membus.reqLayer0.occupancy             1831000                       # Layer occupancy (ticks)
system.membus.reqLayer0.utilization               0.0                       # Layer utilization (%)
system.membus.reqLayer1.occupancy           267944633                       # Layer occupancy (ticks)
system.membus.reqLayer1.utilization               3.1                       # Layer utilization (%)
system.membus.respLayer1.occupancy            2165952                       # Layer occupancy (ticks)
system.membus.respLayer1.utilization              0.0                       # Layer utilization (%)
system.membus.respLayer2.occupancy          117648000                       # Layer occupancy (ticks)
system.membus.respLayer2.utilization              1.3                       # Layer utilization (%)
system.membus.badaddr_responder.pwrStateResidencyTicks::UNDEFINED   8782108000                       # Cumulative time (in ticks) in various power states
system.tol2bus.snoop_filter.tot_requests       491295                       # Total number of requests made to the snoop filter.
system.tol2bus.snoop_filter.hit_single_requests       230240                       # Number of requests hitting in the snoop filter with a single holder of the requested data.
system.tol2bus.snoop_filter.hit_multi_requests        51540                       # Number of requests hitting in the snoop filter with multiple (>1) holders of the requested data.
system.tol2bus.snoop_filter.tot_snoops           3680                       # Total number of snoops made to the snoop filter.
system.tol2bus.snoop_filter.hit_single_snoops         3144                       # Number of snoops hitting in the snoop filter with a single holder of the requested data.
system.tol2bus.snoop_filter.hit_multi_snoops          536                       # Number of snoops hitting in the snoop filter with multiple (>1) holders of the requested data.
system.tol2bus.pwrStateResidencyTicks::UNDEFINED   8782108000                       # Cumulative time (in ticks) in various power states
system.tol2bus.trans_dist::ReadReq                589                       # Transaction distribution
system.tol2bus.trans_dist::ReadResp            185985                       # Transaction distribution
system.tol2bus.trans_dist::WriteReq               478                       # Transaction distribution
system.tol2bus.trans_dist::WriteResp              478                       # Transaction distribution
system.tol2bus.trans_dist::WritebackDirty       116566                       # Transaction distribution
system.tol2bus.trans_dist::WritebackClean       134690                       # Transaction distribution
system.tol2bus.trans_dist::CleanEvict           43480                       # Transaction distribution
system.tol2bus.trans_dist::UpgradeReq             881                       # Transaction distribution
system.tol2bus.trans_dist::SCUpgradeReq           232                       # Transaction distribution
system.tol2bus.trans_dist::UpgradeResp           1113                       # Transaction distribution
system.tol2bus.trans_dist::ReadExReq            61313                       # Transaction distribution
system.tol2bus.trans_dist::ReadExResp           61313                       # Transaction distribution
system.tol2bus.trans_dist::ReadCleanReq        134695                       # Transaction distribution
system.tol2bus.trans_dist::ReadSharedReq        50715                       # Transaction distribution
system.tol2bus.trans_dist::InvalidateReq         1949                       # Transaction distribution
system.tol2bus.trans_dist::InvalidateResp          370                       # Transaction distribution
system.tol2bus.pkt_count_system.cpu0.icache.mem_side::system.l2.cpu_side       114855                       # Packet count per connected master and slave (bytes)
system.tol2bus.pkt_count_system.cpu0.dcache.mem_side::system.l2.cpu_side       171345                       # Packet count per connected master and slave (bytes)
system.tol2bus.pkt_count_system.cpu1.icache.mem_side::system.l2.cpu_side        27275                       # Packet count per connected master and slave (bytes)
system.tol2bus.pkt_count_system.cpu1.dcache.mem_side::system.l2.cpu_side        22377                       # Packet count per connected master and slave (bytes)
system.tol2bus.pkt_count_system.cpu2.icache.mem_side::system.l2.cpu_side       227335                       # Packet count per connected master and slave (bytes)
system.tol2bus.pkt_count_system.cpu2.dcache.mem_side::system.l2.cpu_side       108693                       # Packet count per connected master and slave (bytes)
system.tol2bus.pkt_count_system.cpu3.icache.mem_side::system.l2.cpu_side        34605                       # Packet count per connected master and slave (bytes)
system.tol2bus.pkt_count_system.cpu3.dcache.mem_side::system.l2.cpu_side        26119                       # Packet count per connected master and slave (bytes)
system.tol2bus.pkt_count::total                732604                       # Packet count per connected master and slave (bytes)
system.tol2bus.pkt_size_system.cpu0.icache.mem_side::system.l2.cpu_side      1225088                       # Cumulative packet size per connected master and slave (bytes)
system.tol2bus.pkt_size_system.cpu0.dcache.mem_side::system.l2.cpu_side      1583340                       # Cumulative packet size per connected master and slave (bytes)
system.tol2bus.pkt_size_system.cpu1.icache.mem_side::system.l2.cpu_side       290928                       # Cumulative packet size per connected master and slave (bytes)
system.tol2bus.pkt_size_system.cpu1.dcache.mem_side::system.l2.cpu_side       200420                       # Cumulative packet size per connected master and slave (bytes)
system.tol2bus.pkt_size_system.cpu2.icache.mem_side::system.l2.cpu_side      2424864                       # Cumulative packet size per connected master and slave (bytes)
system.tol2bus.pkt_size_system.cpu2.dcache.mem_side::system.l2.cpu_side       995345                       # Cumulative packet size per connected master and slave (bytes)
system.tol2bus.pkt_size_system.cpu3.icache.mem_side::system.l2.cpu_side       369120                       # Cumulative packet size per connected master and slave (bytes)
system.tol2bus.pkt_size_system.cpu3.dcache.mem_side::system.l2.cpu_side       233172                       # Cumulative packet size per connected master and slave (bytes)
system.tol2bus.pkt_size::total                7322277                       # Cumulative packet size per connected master and slave (bytes)
system.tol2bus.snoops                           62625                       # Total snoops (count)
system.tol2bus.snoopTraffic                    647328                       # Total snoop traffic (bytes)
system.tol2bus.snoop_fanout::samples           302103                       # Request fanout histogram
system.tol2bus.snoop_fanout::mean            0.223821                       # Request fanout histogram
system.tol2bus.snoop_fanout::stdev           0.636109                       # Request fanout histogram
system.tol2bus.snoop_fanout::underflows             0      0.00%      0.00% # Request fanout histogram
system.tol2bus.snoop_fanout::0                 260350     86.18%     86.18% # Request fanout histogram
system.tol2bus.snoop_fanout::1                  24900      8.24%     94.42% # Request fanout histogram
system.tol2bus.snoop_fanout::2                   7846      2.60%     97.02% # Request fanout histogram
system.tol2bus.snoop_fanout::3                   9003      2.98%    100.00% # Request fanout histogram
system.tol2bus.snoop_fanout::4                      4      0.00%    100.00% # Request fanout histogram
system.tol2bus.snoop_fanout::5                      0      0.00%    100.00% # Request fanout histogram
system.tol2bus.snoop_fanout::6                      0      0.00%    100.00% # Request fanout histogram
system.tol2bus.snoop_fanout::7                      0      0.00%    100.00% # Request fanout histogram
system.tol2bus.snoop_fanout::8                      0      0.00%    100.00% # Request fanout histogram
system.tol2bus.snoop_fanout::overflows              0      0.00%    100.00% # Request fanout histogram
system.tol2bus.snoop_fanout::min_value              0                       # Request fanout histogram
system.tol2bus.snoop_fanout::max_value              4                       # Request fanout histogram
system.tol2bus.snoop_fanout::total             302103                       # Request fanout histogram
system.tol2bus.reqLayer0.occupancy          355846998                       # Layer occupancy (ticks)
system.tol2bus.reqLayer0.utilization              4.1                       # Layer utilization (%)
system.tol2bus.snoopLayer0.occupancy           209974                       # Layer occupancy (ticks)
system.tol2bus.snoopLayer0.utilization            0.0                       # Layer utilization (%)
system.tol2bus.respLayer0.occupancy          38326421                       # Layer occupancy (ticks)
system.tol2bus.respLayer0.utilization             0.4                       # Layer utilization (%)
system.tol2bus.respLayer1.occupancy          58541934                       # Layer occupancy (ticks)
system.tol2bus.respLayer1.utilization             0.7                       # Layer utilization (%)
system.tol2bus.respLayer2.occupancy           9119444                       # Layer occupancy (ticks)
system.tol2bus.respLayer2.utilization             0.1                       # Layer utilization (%)
system.tol2bus.respLayer3.occupancy           8025407                       # Layer occupancy (ticks)
system.tol2bus.respLayer3.utilization             0.1                       # Layer utilization (%)
system.tol2bus.respLayer4.occupancy          75819422                       # Layer occupancy (ticks)
system.tol2bus.respLayer4.utilization             0.9                       # Layer utilization (%)
system.tol2bus.respLayer5.occupancy          37516414                       # Layer occupancy (ticks)
system.tol2bus.respLayer5.utilization             0.4                       # Layer utilization (%)
system.tol2bus.respLayer6.occupancy          11553462                       # Layer occupancy (ticks)
system.tol2bus.respLayer6.utilization             0.1                       # Layer utilization (%)
system.tol2bus.respLayer7.occupancy           9476398                       # Layer occupancy (ticks)
system.tol2bus.respLayer7.utilization             0.1                       # Layer utilization (%)
system.tsunami.backdoor.pwrStateResidencyTicks::UNDEFINED   8782108000                       # Cumulative time (in ticks) in various power states
system.tsunami.cchip.pwrStateResidencyTicks::UNDEFINED   8782108000                       # Cumulative time (in ticks) in various power states
system.tsunami.pchip.pwrStateResidencyTicks::UNDEFINED   8782108000                       # Cumulative time (in ticks) in various power states
system.tsunami.ethernet.pwrStateResidencyTicks::UNDEFINED   8782108000                       # Cumulative time (in ticks) in various power states
system.tsunami.ethernet.descDMAReads                0                       # Number of descriptors the device read w/ DMA
system.tsunami.ethernet.descDMAWrites               0                       # Number of descriptors the device wrote w/ DMA
system.tsunami.ethernet.descDmaReadBytes            0                       # number of descriptor bytes read w/ DMA
system.tsunami.ethernet.descDmaWriteBytes            0                       # number of descriptor bytes write w/ DMA
system.tsunami.ethernet.postedSwi                   0                       # number of software interrupts posted to CPU
system.tsunami.ethernet.coalescedSwi              nan                       # average number of Swi's coalesced into each post
system.tsunami.ethernet.totalSwi                    0                       # total number of Swi written to ISR
system.tsunami.ethernet.postedRxIdle                0                       # number of rxIdle interrupts posted to CPU
system.tsunami.ethernet.coalescedRxIdle           nan                       # average number of RxIdle's coalesced into each post
system.tsunami.ethernet.totalRxIdle                 0                       # total number of RxIdle written to ISR
system.tsunami.ethernet.postedRxOk                  0                       # number of RxOk interrupts posted to CPU
system.tsunami.ethernet.coalescedRxOk             nan                       # average number of RxOk's coalesced into each post
system.tsunami.ethernet.totalRxOk                   0                       # total number of RxOk written to ISR
system.tsunami.ethernet.postedRxDesc                0                       # number of RxDesc interrupts posted to CPU
system.tsunami.ethernet.coalescedRxDesc           nan                       # average number of RxDesc's coalesced into each post
system.tsunami.ethernet.totalRxDesc                 0                       # total number of RxDesc written to ISR
system.tsunami.ethernet.postedTxOk                  0                       # number of TxOk interrupts posted to CPU
system.tsunami.ethernet.coalescedTxOk             nan                       # average number of TxOk's coalesced into each post
system.tsunami.ethernet.totalTxOk                   0                       # total number of TxOk written to ISR
system.tsunami.ethernet.postedTxIdle                0                       # number of TxIdle interrupts posted to CPU
system.tsunami.ethernet.coalescedTxIdle           nan                       # average number of TxIdle's coalesced into each post
system.tsunami.ethernet.totalTxIdle                 0                       # total number of TxIdle written to ISR
system.tsunami.ethernet.postedTxDesc                0                       # number of TxDesc interrupts posted to CPU
system.tsunami.ethernet.coalescedTxDesc           nan                       # average number of TxDesc's coalesced into each post
system.tsunami.ethernet.totalTxDesc                 0                       # total number of TxDesc written to ISR
system.tsunami.ethernet.postedRxOrn                 0                       # number of RxOrn posted to CPU
system.tsunami.ethernet.coalescedRxOrn            nan                       # average number of RxOrn's coalesced into each post
system.tsunami.ethernet.totalRxOrn                  0                       # total number of RxOrn written to ISR
system.tsunami.ethernet.coalescedTotal            nan                       # average number of interrupts coalesced into each post
system.tsunami.ethernet.postedInterrupts            0                       # number of posts to CPU
system.tsunami.ethernet.droppedPackets              0                       # number of packets dropped
system.tsunami.fake_OROM.pwrStateResidencyTicks::UNDEFINED   8782108000                       # Cumulative time (in ticks) in various power states
system.tsunami.fake_ata0.pwrStateResidencyTicks::UNDEFINED   8782108000                       # Cumulative time (in ticks) in various power states
system.tsunami.fake_ata1.pwrStateResidencyTicks::UNDEFINED   8782108000                       # Cumulative time (in ticks) in various power states
system.tsunami.fake_pnp_addr.pwrStateResidencyTicks::UNDEFINED   8782108000                       # Cumulative time (in ticks) in various power states
system.tsunami.fake_pnp_read0.pwrStateResidencyTicks::UNDEFINED   8782108000                       # Cumulative time (in ticks) in various power states
system.tsunami.fake_pnp_read1.pwrStateResidencyTicks::UNDEFINED   8782108000                       # Cumulative time (in ticks) in various power states
system.tsunami.fake_pnp_read2.pwrStateResidencyTicks::UNDEFINED   8782108000                       # Cumulative time (in ticks) in various power states
system.tsunami.fake_pnp_read3.pwrStateResidencyTicks::UNDEFINED   8782108000                       # Cumulative time (in ticks) in various power states
system.tsunami.fake_pnp_read4.pwrStateResidencyTicks::UNDEFINED   8782108000                       # Cumulative time (in ticks) in various power states
system.tsunami.fake_pnp_read5.pwrStateResidencyTicks::UNDEFINED   8782108000                       # Cumulative time (in ticks) in various power states
system.tsunami.fake_pnp_read6.pwrStateResidencyTicks::UNDEFINED   8782108000                       # Cumulative time (in ticks) in various power states
system.tsunami.fake_pnp_read7.pwrStateResidencyTicks::UNDEFINED   8782108000                       # Cumulative time (in ticks) in various power states
system.tsunami.fake_pnp_write.pwrStateResidencyTicks::UNDEFINED   8782108000                       # Cumulative time (in ticks) in various power states
system.tsunami.fake_ppc.pwrStateResidencyTicks::UNDEFINED   8782108000                       # Cumulative time (in ticks) in various power states
system.tsunami.fake_sm_chip.pwrStateResidencyTicks::UNDEFINED   8782108000                       # Cumulative time (in ticks) in various power states
system.tsunami.fake_uart1.pwrStateResidencyTicks::UNDEFINED   8782108000                       # Cumulative time (in ticks) in various power states
system.tsunami.fake_uart2.pwrStateResidencyTicks::UNDEFINED   8782108000                       # Cumulative time (in ticks) in various power states
system.tsunami.fake_uart3.pwrStateResidencyTicks::UNDEFINED   8782108000                       # Cumulative time (in ticks) in various power states
system.tsunami.fake_uart4.pwrStateResidencyTicks::UNDEFINED   8782108000                       # Cumulative time (in ticks) in various power states
system.tsunami.fb.pwrStateResidencyTicks::UNDEFINED   8782108000                       # Cumulative time (in ticks) in various power states
system.tsunami.ide.pwrStateResidencyTicks::UNDEFINED   8782108000                       # Cumulative time (in ticks) in various power states
system.tsunami.io.pwrStateResidencyTicks::UNDEFINED   8782108000                       # Cumulative time (in ticks) in various power states
system.tsunami.uart.pwrStateResidencyTicks::UNDEFINED   8782108000                       # Cumulative time (in ticks) in various power states

---------- End Simulation Statistics   ----------
