
---------- Begin Simulation Statistics ----------
sim_seconds                                  2.640910                       # Number of seconds simulated
sim_ticks                                2640909915500                       # Number of ticks simulated
final_tick                               2640909915500                       # Number of ticks from beginning of simulation (restored from checkpoints and never reset)
sim_freq                                 1000000000000                       # Frequency of simulated ticks
host_inst_rate                                 231227                       # Simulator instruction rate (inst/s)
host_op_rate                                   231227                       # Simulator op (including micro ops) rate (op/s)
host_tick_rate                             6264460272                       # Simulator tick rate (ticks/s)
host_mem_usage                                 732004                       # Number of bytes of host memory used
host_seconds                                   421.57                       # Real time elapsed on the host
sim_insts                                    97478251                       # Number of instructions simulated
sim_ops                                      97478251                       # Number of ops (including micro ops) simulated
system.voltage_domain.voltage                       1                       # Voltage in Volts
system.clk_domain.clock                          1000                       # Clock period in ticks
system.mem_ctrls.pwrStateResidencyTicks::UNDEFINED 2640909915500                       # Cumulative time (in ticks) in various power states
system.mem_ctrls.bytes_read::cpu.inst       106863104                       # Number of bytes read from this memory
system.mem_ctrls.bytes_read::cpu.data       309528320                       # Number of bytes read from this memory
system.mem_ctrls.bytes_read::tsunami.ide         4096                       # Number of bytes read from this memory
system.mem_ctrls.bytes_read::total          416395520                       # Number of bytes read from this memory
system.mem_ctrls.bytes_inst_read::cpu.inst    106863104                       # Number of instructions bytes read from this memory
system.mem_ctrls.bytes_inst_read::total     106863104                       # Number of instructions bytes read from this memory
system.mem_ctrls.bytes_written::writebacks     54915456                       # Number of bytes written to this memory
system.mem_ctrls.bytes_written::total        54915456                       # Number of bytes written to this memory
system.mem_ctrls.num_reads::cpu.inst           834868                       # Number of read requests responded to by this memory
system.mem_ctrls.num_reads::cpu.data          2418190                       # Number of read requests responded to by this memory
system.mem_ctrls.num_reads::tsunami.ide            32                       # Number of read requests responded to by this memory
system.mem_ctrls.num_reads::total             3253090                       # Number of read requests responded to by this memory
system.mem_ctrls.num_writes::writebacks        429027                       # Number of write requests responded to by this memory
system.mem_ctrls.num_writes::total             429027                       # Number of write requests responded to by this memory
system.mem_ctrls.bw_read::cpu.inst           40464502                       # Total read bandwidth from this memory (bytes/s)
system.mem_ctrls.bw_read::cpu.data          117205179                       # Total read bandwidth from this memory (bytes/s)
system.mem_ctrls.bw_read::tsunami.ide            1551                       # Total read bandwidth from this memory (bytes/s)
system.mem_ctrls.bw_read::total             157671232                       # Total read bandwidth from this memory (bytes/s)
system.mem_ctrls.bw_inst_read::cpu.inst      40464502                       # Instruction read bandwidth from this memory (bytes/s)
system.mem_ctrls.bw_inst_read::total         40464502                       # Instruction read bandwidth from this memory (bytes/s)
system.mem_ctrls.bw_write::writebacks        20794142                       # Write bandwidth from this memory (bytes/s)
system.mem_ctrls.bw_write::total             20794142                       # Write bandwidth from this memory (bytes/s)
system.mem_ctrls.bw_total::writebacks        20794142                       # Total bandwidth to/from this memory (bytes/s)
system.mem_ctrls.bw_total::cpu.inst          40464502                       # Total bandwidth to/from this memory (bytes/s)
system.mem_ctrls.bw_total::cpu.data         117205179                       # Total bandwidth to/from this memory (bytes/s)
system.mem_ctrls.bw_total::tsunami.ide           1551                       # Total bandwidth to/from this memory (bytes/s)
system.mem_ctrls.bw_total::total            178465374                       # Total bandwidth to/from this memory (bytes/s)
system.mem_ctrls.readReqs                     3253090                       # Number of read requests accepted
system.mem_ctrls.writeReqs                     429027                       # Number of write requests accepted
system.mem_ctrls.readBursts                   6506180                       # Number of DRAM read bursts, including those serviced by the write queue
system.mem_ctrls.writeBursts                   858054                       # Number of DRAM write bursts, including those merged in the write queue
system.mem_ctrls.bytesReadDRAM              413576512                       # Total number of bytes read from DRAM
system.mem_ctrls.bytesReadWrQ                 2819008                       # Total number of bytes read from write queue
system.mem_ctrls.bytesWritten                54659456                       # Total number of bytes written to DRAM
system.mem_ctrls.bytesReadSys               416395520                       # Total read bytes from the system interface side
system.mem_ctrls.bytesWrittenSys             54915456                       # Total written bytes from the system interface side
system.mem_ctrls.servicedByWrQ                  44047                       # Number of DRAM read bursts serviced by the write queue
system.mem_ctrls.mergedWrBursts                  3980                       # Number of DRAM write bursts merged with an existing one
system.mem_ctrls.neitherReadNorWriteReqs            0                       # Number of requests that are neither read nor write
system.mem_ctrls.perBankRdBursts::0            478854                       # Per bank write bursts
system.mem_ctrls.perBankRdBursts::1            310852                       # Per bank write bursts
system.mem_ctrls.perBankRdBursts::2            317124                       # Per bank write bursts
system.mem_ctrls.perBankRdBursts::3            348966                       # Per bank write bursts
system.mem_ctrls.perBankRdBursts::4            314104                       # Per bank write bursts
system.mem_ctrls.perBankRdBursts::5            367420                       # Per bank write bursts
system.mem_ctrls.perBankRdBursts::6            370140                       # Per bank write bursts
system.mem_ctrls.perBankRdBursts::7            261239                       # Per bank write bursts
system.mem_ctrls.perBankRdBursts::8            419519                       # Per bank write bursts
system.mem_ctrls.perBankRdBursts::9            652413                       # Per bank write bursts
system.mem_ctrls.perBankRdBursts::10           426349                       # Per bank write bursts
system.mem_ctrls.perBankRdBursts::11           483204                       # Per bank write bursts
system.mem_ctrls.perBankRdBursts::12           352902                       # Per bank write bursts
system.mem_ctrls.perBankRdBursts::13           415918                       # Per bank write bursts
system.mem_ctrls.perBankRdBursts::14           470164                       # Per bank write bursts
system.mem_ctrls.perBankRdBursts::15           472965                       # Per bank write bursts
system.mem_ctrls.perBankWrBursts::0             38641                       # Per bank write bursts
system.mem_ctrls.perBankWrBursts::1             68656                       # Per bank write bursts
system.mem_ctrls.perBankWrBursts::2             37805                       # Per bank write bursts
system.mem_ctrls.perBankWrBursts::3             31515                       # Per bank write bursts
system.mem_ctrls.perBankWrBursts::4             32317                       # Per bank write bursts
system.mem_ctrls.perBankWrBursts::5             31467                       # Per bank write bursts
system.mem_ctrls.perBankWrBursts::6             42647                       # Per bank write bursts
system.mem_ctrls.perBankWrBursts::7             53614                       # Per bank write bursts
system.mem_ctrls.perBankWrBursts::8             67557                       # Per bank write bursts
system.mem_ctrls.perBankWrBursts::9             67177                       # Per bank write bursts
system.mem_ctrls.perBankWrBursts::10            50278                       # Per bank write bursts
system.mem_ctrls.perBankWrBursts::11            50439                       # Per bank write bursts
system.mem_ctrls.perBankWrBursts::12            47339                       # Per bank write bursts
system.mem_ctrls.perBankWrBursts::13            60914                       # Per bank write bursts
system.mem_ctrls.perBankWrBursts::14            41405                       # Per bank write bursts
system.mem_ctrls.perBankWrBursts::15           132283                       # Per bank write bursts
system.mem_ctrls.numRdRetry                        10                       # Number of times read queue was full causing retry
system.mem_ctrls.numWrRetry                      5567                       # Number of times write queue was full causing retry
system.mem_ctrls.totGap                  2640909902500                       # Total gap between requests
system.mem_ctrls.readPktSize::0                     0                       # Read request sizes (log2)
system.mem_ctrls.readPktSize::1                     0                       # Read request sizes (log2)
system.mem_ctrls.readPktSize::2                     0                       # Read request sizes (log2)
system.mem_ctrls.readPktSize::3                     0                       # Read request sizes (log2)
system.mem_ctrls.readPktSize::4                     0                       # Read request sizes (log2)
system.mem_ctrls.readPktSize::5                     0                       # Read request sizes (log2)
system.mem_ctrls.readPktSize::6               6506180                       # Read request sizes (log2)
system.mem_ctrls.writePktSize::0                    0                       # Write request sizes (log2)
system.mem_ctrls.writePktSize::1                    0                       # Write request sizes (log2)
system.mem_ctrls.writePktSize::2                    0                       # Write request sizes (log2)
system.mem_ctrls.writePktSize::3                    0                       # Write request sizes (log2)
system.mem_ctrls.writePktSize::4                    0                       # Write request sizes (log2)
system.mem_ctrls.writePktSize::5                    0                       # Write request sizes (log2)
system.mem_ctrls.writePktSize::6               858054                       # Write request sizes (log2)
system.mem_ctrls.rdQLenPdf::0                 3231618                       # What read queue length does an incoming req see
system.mem_ctrls.rdQLenPdf::1                 3230447                       # What read queue length does an incoming req see
system.mem_ctrls.rdQLenPdf::2                       1                       # What read queue length does an incoming req see
system.mem_ctrls.rdQLenPdf::3                       1                       # What read queue length does an incoming req see
system.mem_ctrls.rdQLenPdf::4                       1                       # What read queue length does an incoming req see
system.mem_ctrls.rdQLenPdf::5                       1                       # What read queue length does an incoming req see
system.mem_ctrls.rdQLenPdf::6                       1                       # What read queue length does an incoming req see
system.mem_ctrls.rdQLenPdf::7                       1                       # What read queue length does an incoming req see
system.mem_ctrls.rdQLenPdf::8                       1                       # What read queue length does an incoming req see
system.mem_ctrls.rdQLenPdf::9                       2                       # What read queue length does an incoming req see
system.mem_ctrls.rdQLenPdf::10                      1                       # What read queue length does an incoming req see
system.mem_ctrls.rdQLenPdf::11                      1                       # What read queue length does an incoming req see
system.mem_ctrls.rdQLenPdf::12                      1                       # What read queue length does an incoming req see
system.mem_ctrls.rdQLenPdf::13                      1                       # What read queue length does an incoming req see
system.mem_ctrls.rdQLenPdf::14                      1                       # What read queue length does an incoming req see
system.mem_ctrls.rdQLenPdf::15                      1                       # What read queue length does an incoming req see
system.mem_ctrls.rdQLenPdf::16                      1                       # What read queue length does an incoming req see
system.mem_ctrls.rdQLenPdf::17                      1                       # What read queue length does an incoming req see
system.mem_ctrls.rdQLenPdf::18                      2                       # What read queue length does an incoming req see
system.mem_ctrls.rdQLenPdf::19                      1                       # What read queue length does an incoming req see
system.mem_ctrls.rdQLenPdf::20                      1                       # What read queue length does an incoming req see
system.mem_ctrls.rdQLenPdf::21                      1                       # What read queue length does an incoming req see
system.mem_ctrls.rdQLenPdf::22                      1                       # What read queue length does an incoming req see
system.mem_ctrls.rdQLenPdf::23                      1                       # What read queue length does an incoming req see
system.mem_ctrls.rdQLenPdf::24                      2                       # What read queue length does an incoming req see
system.mem_ctrls.rdQLenPdf::25                      3                       # What read queue length does an incoming req see
system.mem_ctrls.rdQLenPdf::26                      4                       # What read queue length does an incoming req see
system.mem_ctrls.rdQLenPdf::27                      5                       # What read queue length does an incoming req see
system.mem_ctrls.rdQLenPdf::28                      4                       # What read queue length does an incoming req see
system.mem_ctrls.rdQLenPdf::29                      8                       # What read queue length does an incoming req see
system.mem_ctrls.rdQLenPdf::30                     12                       # What read queue length does an incoming req see
system.mem_ctrls.rdQLenPdf::31                      6                       # What read queue length does an incoming req see
system.mem_ctrls.wrQLenPdf::0                       1                       # What write queue length does an incoming req see
system.mem_ctrls.wrQLenPdf::1                       1                       # What write queue length does an incoming req see
system.mem_ctrls.wrQLenPdf::2                       1                       # What write queue length does an incoming req see
system.mem_ctrls.wrQLenPdf::3                       1                       # What write queue length does an incoming req see
system.mem_ctrls.wrQLenPdf::4                       1                       # What write queue length does an incoming req see
system.mem_ctrls.wrQLenPdf::5                       1                       # What write queue length does an incoming req see
system.mem_ctrls.wrQLenPdf::6                       1                       # What write queue length does an incoming req see
system.mem_ctrls.wrQLenPdf::7                       1                       # What write queue length does an incoming req see
system.mem_ctrls.wrQLenPdf::8                       1                       # What write queue length does an incoming req see
system.mem_ctrls.wrQLenPdf::9                       1                       # What write queue length does an incoming req see
system.mem_ctrls.wrQLenPdf::10                      1                       # What write queue length does an incoming req see
system.mem_ctrls.wrQLenPdf::11                      1                       # What write queue length does an incoming req see
system.mem_ctrls.wrQLenPdf::12                      1                       # What write queue length does an incoming req see
system.mem_ctrls.wrQLenPdf::13                      1                       # What write queue length does an incoming req see
system.mem_ctrls.wrQLenPdf::14                      1                       # What write queue length does an incoming req see
system.mem_ctrls.wrQLenPdf::15                  12669                       # What write queue length does an incoming req see
system.mem_ctrls.wrQLenPdf::16                  13767                       # What write queue length does an incoming req see
system.mem_ctrls.wrQLenPdf::17                  43351                       # What write queue length does an incoming req see
system.mem_ctrls.wrQLenPdf::18                  48279                       # What write queue length does an incoming req see
system.mem_ctrls.wrQLenPdf::19                  48818                       # What write queue length does an incoming req see
system.mem_ctrls.wrQLenPdf::20                  48894                       # What write queue length does an incoming req see
system.mem_ctrls.wrQLenPdf::21                  48905                       # What write queue length does an incoming req see
system.mem_ctrls.wrQLenPdf::22                  48926                       # What write queue length does an incoming req see
system.mem_ctrls.wrQLenPdf::23                  48940                       # What write queue length does an incoming req see
system.mem_ctrls.wrQLenPdf::24                  48943                       # What write queue length does an incoming req see
system.mem_ctrls.wrQLenPdf::25                  49079                       # What write queue length does an incoming req see
system.mem_ctrls.wrQLenPdf::26                  49344                       # What write queue length does an incoming req see
system.mem_ctrls.wrQLenPdf::27                  49490                       # What write queue length does an incoming req see
system.mem_ctrls.wrQLenPdf::28                  49494                       # What write queue length does an incoming req see
system.mem_ctrls.wrQLenPdf::29                  49888                       # What write queue length does an incoming req see
system.mem_ctrls.wrQLenPdf::30                  49921                       # What write queue length does an incoming req see
system.mem_ctrls.wrQLenPdf::31                  49549                       # What write queue length does an incoming req see
system.mem_ctrls.wrQLenPdf::32                  49553                       # What write queue length does an incoming req see
system.mem_ctrls.wrQLenPdf::33                   6863                       # What write queue length does an incoming req see
system.mem_ctrls.wrQLenPdf::34                    540                       # What write queue length does an incoming req see
system.mem_ctrls.wrQLenPdf::35                    584                       # What write queue length does an incoming req see
system.mem_ctrls.wrQLenPdf::36                    559                       # What write queue length does an incoming req see
system.mem_ctrls.wrQLenPdf::37                    433                       # What write queue length does an incoming req see
system.mem_ctrls.wrQLenPdf::38                    377                       # What write queue length does an incoming req see
system.mem_ctrls.wrQLenPdf::39                    425                       # What write queue length does an incoming req see
system.mem_ctrls.wrQLenPdf::40                    456                       # What write queue length does an incoming req see
system.mem_ctrls.wrQLenPdf::41                    470                       # What write queue length does an incoming req see
system.mem_ctrls.wrQLenPdf::42                    406                       # What write queue length does an incoming req see
system.mem_ctrls.wrQLenPdf::43                    338                       # What write queue length does an incoming req see
system.mem_ctrls.wrQLenPdf::44                    378                       # What write queue length does an incoming req see
system.mem_ctrls.wrQLenPdf::45                    333                       # What write queue length does an incoming req see
system.mem_ctrls.wrQLenPdf::46                    322                       # What write queue length does an incoming req see
system.mem_ctrls.wrQLenPdf::47                    385                       # What write queue length does an incoming req see
system.mem_ctrls.wrQLenPdf::48                    324                       # What write queue length does an incoming req see
system.mem_ctrls.wrQLenPdf::49                    390                       # What write queue length does an incoming req see
system.mem_ctrls.wrQLenPdf::50                    415                       # What write queue length does an incoming req see
system.mem_ctrls.wrQLenPdf::51                    429                       # What write queue length does an incoming req see
system.mem_ctrls.wrQLenPdf::52                    454                       # What write queue length does an incoming req see
system.mem_ctrls.wrQLenPdf::53                    481                       # What write queue length does an incoming req see
system.mem_ctrls.wrQLenPdf::54                    539                       # What write queue length does an incoming req see
system.mem_ctrls.wrQLenPdf::55                    595                       # What write queue length does an incoming req see
system.mem_ctrls.wrQLenPdf::56                    620                       # What write queue length does an incoming req see
system.mem_ctrls.wrQLenPdf::57                    662                       # What write queue length does an incoming req see
system.mem_ctrls.wrQLenPdf::58                    765                       # What write queue length does an incoming req see
system.mem_ctrls.wrQLenPdf::59                    905                       # What write queue length does an incoming req see
system.mem_ctrls.wrQLenPdf::60                   1099                       # What write queue length does an incoming req see
system.mem_ctrls.wrQLenPdf::61                   1651                       # What write queue length does an incoming req see
system.mem_ctrls.wrQLenPdf::62                  12577                       # What write queue length does an incoming req see
system.mem_ctrls.wrQLenPdf::63                  11474                       # What write queue length does an incoming req see
system.mem_ctrls.bytesPerActivate::samples      1199600                       # Bytes accessed per row activation
system.mem_ctrls.bytesPerActivate::mean    390.324135                       # Bytes accessed per row activation
system.mem_ctrls.bytesPerActivate::gmean   273.243092                       # Bytes accessed per row activation
system.mem_ctrls.bytesPerActivate::stdev   339.733851                       # Bytes accessed per row activation
system.mem_ctrls.bytesPerActivate::0-127        22696      1.89%      1.89% # Bytes accessed per row activation
system.mem_ctrls.bytesPerActivate::128-255       510307     42.54%     44.43% # Bytes accessed per row activation
system.mem_ctrls.bytesPerActivate::256-383       223367     18.62%     63.05% # Bytes accessed per row activation
system.mem_ctrls.bytesPerActivate::384-511        93514      7.80%     70.85% # Bytes accessed per row activation
system.mem_ctrls.bytesPerActivate::512-639        50221      4.19%     75.03% # Bytes accessed per row activation
system.mem_ctrls.bytesPerActivate::640-767        39467      3.29%     78.32% # Bytes accessed per row activation
system.mem_ctrls.bytesPerActivate::768-895        28728      2.39%     80.72% # Bytes accessed per row activation
system.mem_ctrls.bytesPerActivate::896-1023        21773      1.82%     82.53% # Bytes accessed per row activation
system.mem_ctrls.bytesPerActivate::1024-1151       209527     17.47%    100.00% # Bytes accessed per row activation
system.mem_ctrls.bytesPerActivate::total      1199600                       # Bytes accessed per row activation
system.mem_ctrls.rdPerTurnAround::samples        51103                       # Reads before turning the bus around for writes
system.mem_ctrls.rdPerTurnAround::mean     126.453065                       # Reads before turning the bus around for writes
system.mem_ctrls.rdPerTurnAround::stdev   4571.848930                       # Reads before turning the bus around for writes
system.mem_ctrls.rdPerTurnAround::0-32767        51102    100.00%    100.00% # Reads before turning the bus around for writes
system.mem_ctrls.rdPerTurnAround::1.01581e+06-1.04858e+06            1      0.00%    100.00% # Reads before turning the bus around for writes
system.mem_ctrls.rdPerTurnAround::total         51103                       # Reads before turning the bus around for writes
system.mem_ctrls.wrPerTurnAround::samples        51103                       # Writes before turning the bus around for reads
system.mem_ctrls.wrPerTurnAround::mean      16.712404                       # Writes before turning the bus around for reads
system.mem_ctrls.wrPerTurnAround::gmean     16.651580                       # Writes before turning the bus around for reads
system.mem_ctrls.wrPerTurnAround::stdev      1.888575                       # Writes before turning the bus around for reads
system.mem_ctrls.wrPerTurnAround::16-19         50036     97.91%     97.91% # Writes before turning the bus around for reads
system.mem_ctrls.wrPerTurnAround::20-23           656      1.28%     99.20% # Writes before turning the bus around for reads
system.mem_ctrls.wrPerTurnAround::24-27           269      0.53%     99.72% # Writes before turning the bus around for reads
system.mem_ctrls.wrPerTurnAround::28-31            91      0.18%     99.90% # Writes before turning the bus around for reads
system.mem_ctrls.wrPerTurnAround::32-35            28      0.05%     99.95% # Writes before turning the bus around for reads
system.mem_ctrls.wrPerTurnAround::36-39            13      0.03%     99.98% # Writes before turning the bus around for reads
system.mem_ctrls.wrPerTurnAround::44-47             1      0.00%     99.98% # Writes before turning the bus around for reads
system.mem_ctrls.wrPerTurnAround::48-51             1      0.00%     99.98% # Writes before turning the bus around for reads
system.mem_ctrls.wrPerTurnAround::72-75             1      0.00%     99.99% # Writes before turning the bus around for reads
system.mem_ctrls.wrPerTurnAround::92-95             1      0.00%     99.99% # Writes before turning the bus around for reads
system.mem_ctrls.wrPerTurnAround::100-103            1      0.00%     99.99% # Writes before turning the bus around for reads
system.mem_ctrls.wrPerTurnAround::108-111            1      0.00%     99.99% # Writes before turning the bus around for reads
system.mem_ctrls.wrPerTurnAround::116-119            1      0.00%     99.99% # Writes before turning the bus around for reads
system.mem_ctrls.wrPerTurnAround::120-123            2      0.00%    100.00% # Writes before turning the bus around for reads
system.mem_ctrls.wrPerTurnAround::152-155            1      0.00%    100.00% # Writes before turning the bus around for reads
system.mem_ctrls.wrPerTurnAround::total         51103                       # Writes before turning the bus around for reads
system.mem_ctrls.totQLat                 124545152046                       # Total ticks spent queuing
system.mem_ctrls.totMemAccLat            245710145796                       # Total ticks spent from burst creation until serviced by the DRAM
system.mem_ctrls.totBusLat                32310665000                       # Total ticks spent in databus transfers
system.mem_ctrls.avgQLat                     19273.07                       # Average queueing delay per DRAM burst
system.mem_ctrls.avgBusLat                    5000.00                       # Average bus latency per DRAM burst
system.mem_ctrls.avgMemAccLat                38023.07                       # Average memory access latency per DRAM burst
system.mem_ctrls.avgRdBW                       156.60                       # Average DRAM read bandwidth in MiByte/s
system.mem_ctrls.avgWrBW                        20.70                       # Average achieved write bandwidth in MiByte/s
system.mem_ctrls.avgRdBWSys                    157.67                       # Average system read bandwidth in MiByte/s
system.mem_ctrls.avgWrBWSys                     20.79                       # Average system write bandwidth in MiByte/s
system.mem_ctrls.peakBW                      12800.00                       # Theoretical peak bandwidth in MiByte/s
system.mem_ctrls.busUtil                         1.39                       # Data bus utilization in percentage
system.mem_ctrls.busUtilRead                     1.22                       # Data bus utilization in percentage for reads
system.mem_ctrls.busUtilWrite                    0.16                       # Data bus utilization in percentage for writes
system.mem_ctrls.avgRdQLen                       1.98                       # Average read queue length when enqueuing
system.mem_ctrls.avgWrQLen                      25.33                       # Average write queue length when enqueuing
system.mem_ctrls.readRowHits                  5461922                       # Number of row buffer hits during reads
system.mem_ctrls.writeRowHits                  654652                       # Number of row buffer hits during writes
system.mem_ctrls.readRowHitRate                 84.52                       # Row buffer hit rate for reads
system.mem_ctrls.writeRowHitRate                76.65                       # Row buffer hit rate for writes
system.mem_ctrls.avgGap                     717225.96                       # Average gap between requests
system.mem_ctrls.pageHitRate                    83.60                       # Row buffer hit rate, read and write combined
system.mem_ctrls_0.actEnergy               3228151080                       # Energy for activate commands per rank (pJ)
system.mem_ctrls_0.preEnergy               1715780220                       # Energy for precharge commands per rank (pJ)
system.mem_ctrls_0.readEnergy             19768510860                       # Energy for read commands per rank (pJ)
system.mem_ctrls_0.writeEnergy             1757375640                       # Energy for write commands per rank (pJ)
system.mem_ctrls_0.refreshEnergy         32870947200.000004                       # Energy for refresh commands per rank (pJ)
system.mem_ctrls_0.actBackEnergy          42669730890                       # Energy for active background per rank (pJ)
system.mem_ctrls_0.preBackEnergy           1183093440                       # Energy for precharge background per rank (pJ)
system.mem_ctrls_0.actPowerDownEnergy    121528088610                       # Energy for active power-down per rank (pJ)
system.mem_ctrls_0.prePowerDownEnergy     15616970400                       # Energy for precharge power-down per rank (pJ)
system.mem_ctrls_0.selfRefreshEnergy     537856019160                       # Energy for self refresh per rank (pJ)
system.mem_ctrls_0.totalEnergy           778198145370                       # Total energy per rank (pJ)
system.mem_ctrls_0.averagePower            294.670462                       # Core power per rank (mW)
system.mem_ctrls_0.totalIdleTime         2544248715000                       # Total Idle time Per DRAM Rank
system.mem_ctrls_0.memoryStateTime::IDLE   1038646750                       # Time in different power states
system.mem_ctrls_0.memoryStateTime::REF   13915942000                       # Time in different power states
system.mem_ctrls_0.memoryStateTime::SREF 2237069041000                       # Time in different power states
system.mem_ctrls_0.memoryStateTime::PRE_PDN  40669331000                       # Time in different power states
system.mem_ctrls_0.memoryStateTime::ACT   81706611750                       # Time in different power states
system.mem_ctrls_0.memoryStateTime::ACT_PDN 266510343000                       # Time in different power states
system.mem_ctrls_1.actEnergy               5337085740                       # Energy for activate commands per rank (pJ)
system.mem_ctrls_1.preEnergy               2836701780                       # Energy for precharge commands per rank (pJ)
system.mem_ctrls_1.readEnergy             26371118760                       # Energy for read commands per rank (pJ)
system.mem_ctrls_1.writeEnergy             2700786240                       # Energy for write commands per rank (pJ)
system.mem_ctrls_1.refreshEnergy         32706223680.000004                       # Energy for refresh commands per rank (pJ)
system.mem_ctrls_1.actBackEnergy          48973576350                       # Energy for active background per rank (pJ)
system.mem_ctrls_1.preBackEnergy           1138276800                       # Energy for precharge background per rank (pJ)
system.mem_ctrls_1.actPowerDownEnergy    120406199790                       # Energy for active power-down per rank (pJ)
system.mem_ctrls_1.prePowerDownEnergy     11709105120                       # Energy for precharge power-down per rank (pJ)
system.mem_ctrls_1.selfRefreshEnergy     537358875360                       # Energy for self refresh per rank (pJ)
system.mem_ctrls_1.totalEnergy           789540618000                       # Total energy per rank (pJ)
system.mem_ctrls_1.averagePower            298.965373                       # Core power per rank (mW)
system.mem_ctrls_1.totalIdleTime         2530540966750                       # Total Idle time Per DRAM Rank
system.mem_ctrls_1.memoryStateTime::IDLE    858886750                       # Time in different power states
system.mem_ctrls_1.memoryStateTime::REF   13843850000                       # Time in different power states
system.mem_ctrls_1.memoryStateTime::SREF 2236000342500                       # Time in different power states
system.mem_ctrls_1.memoryStateTime::PRE_PDN  30492575500                       # Time in different power states
system.mem_ctrls_1.memoryStateTime::ACT   95666212000                       # Time in different power states
system.mem_ctrls_1.memoryStateTime::ACT_PDN 264048048750                       # Time in different power states
system.pwrStateResidencyTicks::UNDEFINED 2640909915500                       # Cumulative time (in ticks) in various power states
system.bridge.pwrStateResidencyTicks::UNDEFINED 2640909915500                       # Cumulative time (in ticks) in various power states
system.cpu_voltage_domain.voltage                   1                       # Voltage in Volts
system.cpu_clk_domain.clock                       500                       # Clock period in ticks
system.cpu.dtb.fetch_hits                           0                       # ITB hits
system.cpu.dtb.fetch_misses                         0                       # ITB misses
system.cpu.dtb.fetch_acv                            0                       # ITB acv
system.cpu.dtb.fetch_accesses                       0                       # ITB accesses
system.cpu.dtb.read_hits                     17013985                       # DTB read hits
system.cpu.dtb.read_misses                      12434                       # DTB read misses
system.cpu.dtb.read_acv                            98                       # DTB read access violations
system.cpu.dtb.read_accesses                   817021                       # DTB read accesses
system.cpu.dtb.write_hits                     8896759                       # DTB write hits
system.cpu.dtb.write_misses                      1307                       # DTB write misses
system.cpu.dtb.write_acv                          169                       # DTB write access violations
system.cpu.dtb.write_accesses                  324494                       # DTB write accesses
system.cpu.dtb.data_hits                     25910744                       # DTB hits
system.cpu.dtb.data_misses                      13741                       # DTB misses
system.cpu.dtb.data_acv                           267                       # DTB access violations
system.cpu.dtb.data_accesses                  1141515                       # DTB accesses
system.cpu.itb.fetch_hits                     5687424                       # ITB hits
system.cpu.itb.fetch_misses                      6040                       # ITB misses
system.cpu.itb.fetch_acv                            1                       # ITB acv
system.cpu.itb.fetch_accesses                 5693464                       # ITB accesses
system.cpu.itb.read_hits                            0                       # DTB read hits
system.cpu.itb.read_misses                          0                       # DTB read misses
system.cpu.itb.read_acv                             0                       # DTB read access violations
system.cpu.itb.read_accesses                        0                       # DTB read accesses
system.cpu.itb.write_hits                           0                       # DTB write hits
system.cpu.itb.write_misses                         0                       # DTB write misses
system.cpu.itb.write_acv                            0                       # DTB write access violations
system.cpu.itb.write_accesses                       0                       # DTB write accesses
system.cpu.itb.data_hits                            0                       # DTB hits
system.cpu.itb.data_misses                          0                       # DTB misses
system.cpu.itb.data_acv                             0                       # DTB access violations
system.cpu.itb.data_accesses                        0                       # DTB accesses
system.cpu.numPwrStateTransitions               14140                       # Number of power state transitions
system.cpu.pwrStateClkGateDist::samples          7070                       # Distribution of time spent in the clock gated state
system.cpu.pwrStateClkGateDist::mean     310512917.256011                       # Distribution of time spent in the clock gated state
system.cpu.pwrStateClkGateDist::stdev    451906081.811266                       # Distribution of time spent in the clock gated state
system.cpu.pwrStateClkGateDist::1000-5e+10         7070    100.00%    100.00% # Distribution of time spent in the clock gated state
system.cpu.pwrStateClkGateDist::min_value        99000                       # Distribution of time spent in the clock gated state
system.cpu.pwrStateClkGateDist::max_value   2000000000                       # Distribution of time spent in the clock gated state
system.cpu.pwrStateClkGateDist::total            7070                       # Distribution of time spent in the clock gated state
system.cpu.pwrStateResidencyTicks::ON    445583590500                       # Cumulative time (in ticks) in various power states
system.cpu.pwrStateResidencyTicks::CLK_GATED 2195326325000                       # Cumulative time (in ticks) in various power states
system.cpu.numCycles                       5281819831                       # number of cpu cycles simulated
system.cpu.numWorkItemsStarted                      0                       # number of work items this cpu started
system.cpu.numWorkItemsCompleted                    0                       # number of work items this cpu completed
system.cpu.kern.inst.arm                            0                       # number of arm instructions executed
system.cpu.kern.inst.quiesce                     7070                       # number of quiesce instructions executed
system.cpu.kern.callpal::cserve                     1      0.00%      0.00% # number of callpals executed
system.cpu.kern.callpal::wrmces                     1      0.00%      0.00% # number of callpals executed
system.cpu.kern.callpal::wrfen                      1      0.00%      0.00% # number of callpals executed
system.cpu.kern.callpal::wrvptptr                   1      0.00%      0.00% # number of callpals executed
system.cpu.kern.callpal::swpctx                  4479      2.07%      2.07% # number of callpals executed
system.cpu.kern.callpal::tbi                       65      0.03%      2.10% # number of callpals executed
system.cpu.kern.callpal::wrent                      7      0.00%      2.10% # number of callpals executed
system.cpu.kern.callpal::swpipl                198969     91.81%     93.91% # number of callpals executed
system.cpu.kern.callpal::rdps                    6150      2.84%     96.75% # number of callpals executed
system.cpu.kern.callpal::wrkgp                      1      0.00%     96.75% # number of callpals executed
system.cpu.kern.callpal::wrusp                      8      0.00%     96.75% # number of callpals executed
system.cpu.kern.callpal::rdusp                     10      0.00%     96.76% # number of callpals executed
system.cpu.kern.callpal::whami                      2      0.00%     96.76% # number of callpals executed
system.cpu.kern.callpal::rti                     6234      2.88%     99.63% # number of callpals executed
system.cpu.kern.callpal::callsys                  559      0.26%     99.89% # number of callpals executed
system.cpu.kern.callpal::imb                      235      0.11%    100.00% # number of callpals executed
system.cpu.kern.callpal::total                 216723                       # number of callpals executed
system.cpu.kern.inst.hwrei                     239524                       # number of hwrei instructions executed
system.cpu.kern.mode_switch::kernel              6920                       # number of protection mode switches
system.cpu.kern.mode_switch::user                1968                       # number of protection mode switches
system.cpu.kern.mode_switch::idle                2299                       # number of protection mode switches
system.cpu.kern.mode_good::kernel                2026                      
system.cpu.kern.mode_good::user                  1968                      
system.cpu.kern.mode_good::idle                    58                      
system.cpu.kern.mode_switch_good::kernel     0.292775                       # fraction of useful protection mode switches
system.cpu.kern.mode_switch_good::user              1                       # fraction of useful protection mode switches
system.cpu.kern.mode_switch_good::idle       0.025228                       # fraction of useful protection mode switches
system.cpu.kern.mode_switch_good::total      0.362206                       # fraction of useful protection mode switches
system.cpu.kern.mode_ticks::kernel       354925681000     13.44%     13.44% # number of ticks spent at the given mode
system.cpu.kern.mode_ticks::user          10396122000      0.39%     13.83% # number of ticks spent at the given mode
system.cpu.kern.mode_ticks::idle         2275585847500     86.17%    100.00% # number of ticks spent at the given mode
system.cpu.kern.swap_context                     4480                       # number of times the context was actually changed
system.cpu.kern.ipl_count::0                    83061     39.94%     39.94% # number of times we switched to this ipl
system.cpu.kern.ipl_count::21                     117      0.06%     40.00% # number of times we switched to this ipl
system.cpu.kern.ipl_count::22                    2633      1.27%     41.26% # number of times we switched to this ipl
system.cpu.kern.ipl_count::31                  122143     58.74%    100.00% # number of times we switched to this ipl
system.cpu.kern.ipl_count::total               207954                       # number of times we switched to this ipl
system.cpu.kern.ipl_good::0                     81524     49.17%     49.17% # number of times we switched to this ipl from a different ipl
system.cpu.kern.ipl_good::21                      117      0.07%     49.24% # number of times we switched to this ipl from a different ipl
system.cpu.kern.ipl_good::22                     2633      1.59%     50.83% # number of times we switched to this ipl from a different ipl
system.cpu.kern.ipl_good::31                    81524     49.17%    100.00% # number of times we switched to this ipl from a different ipl
system.cpu.kern.ipl_good::total                165798                       # number of times we switched to this ipl from a different ipl
system.cpu.kern.ipl_ticks::0             2488118170000     94.21%     94.21% # number of cycles we spent at this ipl
system.cpu.kern.ipl_ticks::21               238341500      0.01%     94.22% # number of cycles we spent at this ipl
system.cpu.kern.ipl_ticks::22              1750531000      0.07%     94.29% # number of cycles we spent at this ipl
system.cpu.kern.ipl_ticks::31            150800610000      5.71%    100.00% # number of cycles we spent at this ipl
system.cpu.kern.ipl_ticks::total         2640907652500                       # number of cycles we spent at this ipl
system.cpu.kern.ipl_used::0                  0.981496                       # fraction of swpipl calls that actually changed the ipl
system.cpu.kern.ipl_used::21                        1                       # fraction of swpipl calls that actually changed the ipl
system.cpu.kern.ipl_used::22                        1                       # fraction of swpipl calls that actually changed the ipl
system.cpu.kern.ipl_used::31                 0.667447                       # fraction of swpipl calls that actually changed the ipl
system.cpu.kern.ipl_used::total              0.797282                       # fraction of swpipl calls that actually changed the ipl
system.cpu.committedInsts                    97478251                       # Number of instructions committed
system.cpu.committedOps                      97478251                       # Number of ops (including micro ops) committed
system.cpu.num_int_alu_accesses              94469834                       # Number of integer alu accesses
system.cpu.num_fp_alu_accesses                 424375                       # Number of float alu accesses
system.cpu.num_vec_alu_accesses                     0                       # Number of vector alu accesses
system.cpu.num_func_calls                     2921750                       # number of times a function call or return occured
system.cpu.num_conditional_control_insts     12575945                       # number of instructions that are conditional controls
system.cpu.num_int_insts                     94469834                       # number of integer instructions
system.cpu.num_fp_insts                        424375                       # number of float instructions
system.cpu.num_vec_insts                            0                       # number of vector instructions
system.cpu.num_int_register_reads           129813201                       # number of times the integer registers were read
system.cpu.num_int_register_writes           71792130                       # number of times the integer registers were written
system.cpu.num_fp_register_reads               176828                       # number of times the floating registers were read
system.cpu.num_fp_register_writes              179793                       # number of times the floating registers were written
system.cpu.num_vec_register_reads                   0                       # number of times the vector registers were read
system.cpu.num_vec_register_writes                  0                       # number of times the vector registers were written
system.cpu.num_mem_refs                      25969510                       # number of memory refs
system.cpu.num_load_insts                    17055203                       # Number of load instructions
system.cpu.num_store_insts                    8914307                       # Number of store instructions
system.cpu.num_idle_cycles               4390652649.998338                       # Number of idle cycles
system.cpu.num_busy_cycles               891167181.001662                       # Number of busy cycles
system.cpu.not_idle_fraction                 0.168724                       # Percentage of non-idle cycles
system.cpu.idle_fraction                     0.831276                       # Percentage of idle cycles
system.cpu.Branches                          16115248                       # Number of branches fetched
system.cpu.op_class::No_OpClass               1595350      1.64%      1.64% # Class of executed instruction
system.cpu.op_class::IntAlu                  67995549     69.74%     71.38% # Class of executed instruction
system.cpu.op_class::IntMult                   187032      0.19%     71.57% # Class of executed instruction
system.cpu.op_class::IntDiv                         0      0.00%     71.57% # Class of executed instruction
system.cpu.op_class::FloatAdd                  117364      0.12%     71.69% # Class of executed instruction
system.cpu.op_class::FloatCmp                       0      0.00%     71.69% # Class of executed instruction
system.cpu.op_class::FloatCvt                       0      0.00%     71.69% # Class of executed instruction
system.cpu.op_class::FloatMult                      0      0.00%     71.69% # Class of executed instruction
system.cpu.op_class::FloatMultAcc                   0      0.00%     71.69% # Class of executed instruction
system.cpu.op_class::FloatDiv                    4179      0.00%     71.70% # Class of executed instruction
system.cpu.op_class::FloatMisc                      0      0.00%     71.70% # Class of executed instruction
system.cpu.op_class::FloatSqrt                      0      0.00%     71.70% # Class of executed instruction
system.cpu.op_class::SimdAdd                        0      0.00%     71.70% # Class of executed instruction
system.cpu.op_class::SimdAddAcc                     0      0.00%     71.70% # Class of executed instruction
system.cpu.op_class::SimdAlu                        0      0.00%     71.70% # Class of executed instruction
system.cpu.op_class::SimdCmp                        0      0.00%     71.70% # Class of executed instruction
system.cpu.op_class::SimdCvt                        0      0.00%     71.70% # Class of executed instruction
system.cpu.op_class::SimdMisc                       0      0.00%     71.70% # Class of executed instruction
system.cpu.op_class::SimdMult                       0      0.00%     71.70% # Class of executed instruction
system.cpu.op_class::SimdMultAcc                    0      0.00%     71.70% # Class of executed instruction
system.cpu.op_class::SimdShift                      0      0.00%     71.70% # Class of executed instruction
system.cpu.op_class::SimdShiftAcc                   0      0.00%     71.70% # Class of executed instruction
system.cpu.op_class::SimdSqrt                       0      0.00%     71.70% # Class of executed instruction
system.cpu.op_class::SimdFloatAdd                   0      0.00%     71.70% # Class of executed instruction
system.cpu.op_class::SimdFloatAlu                   0      0.00%     71.70% # Class of executed instruction
system.cpu.op_class::SimdFloatCmp                   0      0.00%     71.70% # Class of executed instruction
system.cpu.op_class::SimdFloatCvt                   0      0.00%     71.70% # Class of executed instruction
system.cpu.op_class::SimdFloatDiv                   0      0.00%     71.70% # Class of executed instruction
system.cpu.op_class::SimdFloatMisc                  0      0.00%     71.70% # Class of executed instruction
system.cpu.op_class::SimdFloatMult                  0      0.00%     71.70% # Class of executed instruction
system.cpu.op_class::SimdFloatMultAcc               0      0.00%     71.70% # Class of executed instruction
system.cpu.op_class::SimdFloatSqrt                  0      0.00%     71.70% # Class of executed instruction
system.cpu.op_class::MemRead                 17357891     17.80%     89.50% # Class of executed instruction
system.cpu.op_class::MemWrite                 8840944      9.07%     98.57% # Class of executed instruction
system.cpu.op_class::FloatMemRead              154992      0.16%     98.73% # Class of executed instruction
system.cpu.op_class::FloatMemWrite             147840      0.15%     98.88% # Class of executed instruction
system.cpu.op_class::IprAccess                1091118      1.12%    100.00% # Class of executed instruction
system.cpu.op_class::InstPrefetch                   0      0.00%    100.00% # Class of executed instruction
system.cpu.op_class::total                   97492259                       # Class of executed instruction
system.cpu.dcache.tags.pwrStateResidencyTicks::UNDEFINED 2640909915500                       # Cumulative time (in ticks) in various power states
system.cpu.dcache.tags.replacements           2815699                       # number of replacements
system.cpu.dcache.tags.tagsinuse           127.996957                       # Cycle average of tags in use
system.cpu.dcache.tags.total_refs            23110039                       # Total number of references to valid blocks.
system.cpu.dcache.tags.sampled_refs           2815699                       # Sample count of references to valid blocks.
system.cpu.dcache.tags.avg_refs              8.207567                       # Average number of references to valid blocks.
system.cpu.dcache.tags.warmup_cycle          79751500                       # Cycle when the warmup percentage was hit.
system.cpu.dcache.tags.occ_blocks::cpu.data   127.996957                       # Average occupied blocks per requestor
system.cpu.dcache.tags.occ_percent::cpu.data     0.999976                       # Average percentage of cache occupancy
system.cpu.dcache.tags.occ_percent::total     0.999976                       # Average percentage of cache occupancy
system.cpu.dcache.tags.occ_task_id_blocks::1024          128                       # Occupied blocks per task id
system.cpu.dcache.tags.age_task_id_blocks_1024::0           32                       # Occupied blocks per task id
system.cpu.dcache.tags.age_task_id_blocks_1024::1           80                       # Occupied blocks per task id
system.cpu.dcache.tags.age_task_id_blocks_1024::2           16                       # Occupied blocks per task id
system.cpu.dcache.tags.occ_task_id_percent::1024            1                       # Percentage of cache occupancy per task id
system.cpu.dcache.tags.tag_accesses         832636051                       # Number of tag accesses
system.cpu.dcache.tags.data_accesses        832636051                       # Number of data accesses
system.cpu.dcache.pwrStateResidencyTicks::UNDEFINED 2640909915500                       # Cumulative time (in ticks) in various power states
system.cpu.dcache.ReadReq_hits::cpu.data     14211855                       # number of ReadReq hits
system.cpu.dcache.ReadReq_hits::total        14211855                       # number of ReadReq hits
system.cpu.dcache.WriteReq_hits::cpu.data      8308494                       # number of WriteReq hits
system.cpu.dcache.WriteReq_hits::total        8308494                       # number of WriteReq hits
system.cpu.dcache.LoadLockedReq_hits::cpu.data       279719                       # number of LoadLockedReq hits
system.cpu.dcache.LoadLockedReq_hits::total       279719                       # number of LoadLockedReq hits
system.cpu.dcache.StoreCondReq_hits::cpu.data       315978                       # number of StoreCondReq hits
system.cpu.dcache.StoreCondReq_hits::total       315978                       # number of StoreCondReq hits
system.cpu.dcache.demand_hits::cpu.data      22520349                       # number of demand (read+write) hits
system.cpu.dcache.demand_hits::total         22520349                       # number of demand (read+write) hits
system.cpu.dcache.overall_hits::cpu.data     22520349                       # number of overall hits
system.cpu.dcache.overall_hits::total        22520349                       # number of overall hits
system.cpu.dcache.ReadReq_misses::cpu.data      2506812                       # number of ReadReq misses
system.cpu.dcache.ReadReq_misses::total       2506812                       # number of ReadReq misses
system.cpu.dcache.WriteReq_misses::cpu.data       271712                       # number of WriteReq misses
system.cpu.dcache.WriteReq_misses::total       271712                       # number of WriteReq misses
system.cpu.dcache.LoadLockedReq_misses::cpu.data        37312                       # number of LoadLockedReq misses
system.cpu.dcache.LoadLockedReq_misses::total        37312                       # number of LoadLockedReq misses
system.cpu.dcache.demand_misses::cpu.data      2778524                       # number of demand (read+write) misses
system.cpu.dcache.demand_misses::total        2778524                       # number of demand (read+write) misses
system.cpu.dcache.overall_misses::cpu.data      2778524                       # number of overall misses
system.cpu.dcache.overall_misses::total       2778524                       # number of overall misses
system.cpu.dcache.ReadReq_miss_latency::cpu.data 203559041500                       # number of ReadReq miss cycles
system.cpu.dcache.ReadReq_miss_latency::total 203559041500                       # number of ReadReq miss cycles
system.cpu.dcache.WriteReq_miss_latency::cpu.data  22895255500                       # number of WriteReq miss cycles
system.cpu.dcache.WriteReq_miss_latency::total  22895255500                       # number of WriteReq miss cycles
system.cpu.dcache.LoadLockedReq_miss_latency::cpu.data   2679427500                       # number of LoadLockedReq miss cycles
system.cpu.dcache.LoadLockedReq_miss_latency::total   2679427500                       # number of LoadLockedReq miss cycles
system.cpu.dcache.demand_miss_latency::cpu.data 226454297000                       # number of demand (read+write) miss cycles
system.cpu.dcache.demand_miss_latency::total 226454297000                       # number of demand (read+write) miss cycles
system.cpu.dcache.overall_miss_latency::cpu.data 226454297000                       # number of overall miss cycles
system.cpu.dcache.overall_miss_latency::total 226454297000                       # number of overall miss cycles
system.cpu.dcache.ReadReq_accesses::cpu.data     16718667                       # number of ReadReq accesses(hits+misses)
system.cpu.dcache.ReadReq_accesses::total     16718667                       # number of ReadReq accesses(hits+misses)
system.cpu.dcache.WriteReq_accesses::cpu.data      8580206                       # number of WriteReq accesses(hits+misses)
system.cpu.dcache.WriteReq_accesses::total      8580206                       # number of WriteReq accesses(hits+misses)
system.cpu.dcache.LoadLockedReq_accesses::cpu.data       317031                       # number of LoadLockedReq accesses(hits+misses)
system.cpu.dcache.LoadLockedReq_accesses::total       317031                       # number of LoadLockedReq accesses(hits+misses)
system.cpu.dcache.StoreCondReq_accesses::cpu.data       315978                       # number of StoreCondReq accesses(hits+misses)
system.cpu.dcache.StoreCondReq_accesses::total       315978                       # number of StoreCondReq accesses(hits+misses)
system.cpu.dcache.demand_accesses::cpu.data     25298873                       # number of demand (read+write) accesses
system.cpu.dcache.demand_accesses::total     25298873                       # number of demand (read+write) accesses
system.cpu.dcache.overall_accesses::cpu.data     25298873                       # number of overall (read+write) accesses
system.cpu.dcache.overall_accesses::total     25298873                       # number of overall (read+write) accesses
system.cpu.dcache.ReadReq_miss_rate::cpu.data     0.149941                       # miss rate for ReadReq accesses
system.cpu.dcache.ReadReq_miss_rate::total     0.149941                       # miss rate for ReadReq accesses
system.cpu.dcache.WriteReq_miss_rate::cpu.data     0.031667                       # miss rate for WriteReq accesses
system.cpu.dcache.WriteReq_miss_rate::total     0.031667                       # miss rate for WriteReq accesses
system.cpu.dcache.LoadLockedReq_miss_rate::cpu.data     0.117692                       # miss rate for LoadLockedReq accesses
system.cpu.dcache.LoadLockedReq_miss_rate::total     0.117692                       # miss rate for LoadLockedReq accesses
system.cpu.dcache.demand_miss_rate::cpu.data     0.109828                       # miss rate for demand accesses
system.cpu.dcache.demand_miss_rate::total     0.109828                       # miss rate for demand accesses
system.cpu.dcache.overall_miss_rate::cpu.data     0.109828                       # miss rate for overall accesses
system.cpu.dcache.overall_miss_rate::total     0.109828                       # miss rate for overall accesses
system.cpu.dcache.ReadReq_avg_miss_latency::cpu.data 81202.356419                       # average ReadReq miss latency
system.cpu.dcache.ReadReq_avg_miss_latency::total 81202.356419                       # average ReadReq miss latency
system.cpu.dcache.WriteReq_avg_miss_latency::cpu.data 84262.953053                       # average WriteReq miss latency
system.cpu.dcache.WriteReq_avg_miss_latency::total 84262.953053                       # average WriteReq miss latency
system.cpu.dcache.LoadLockedReq_avg_miss_latency::cpu.data 71811.414558                       # average LoadLockedReq miss latency
system.cpu.dcache.LoadLockedReq_avg_miss_latency::total 71811.414558                       # average LoadLockedReq miss latency
system.cpu.dcache.demand_avg_miss_latency::cpu.data 81501.652316                       # average overall miss latency
system.cpu.dcache.demand_avg_miss_latency::total 81501.652316                       # average overall miss latency
system.cpu.dcache.overall_avg_miss_latency::cpu.data 81501.652316                       # average overall miss latency
system.cpu.dcache.overall_avg_miss_latency::total 81501.652316                       # average overall miss latency
system.cpu.dcache.blocked_cycles::no_mshrs            0                       # number of cycles access was blocked
system.cpu.dcache.blocked_cycles::no_targets            0                       # number of cycles access was blocked
system.cpu.dcache.blocked::no_mshrs                 0                       # number of cycles access was blocked
system.cpu.dcache.blocked::no_targets               0                       # number of cycles access was blocked
system.cpu.dcache.avg_blocked_cycles::no_mshrs          nan                       # average number of cycles each access was blocked
system.cpu.dcache.avg_blocked_cycles::no_targets          nan                       # average number of cycles each access was blocked
system.cpu.dcache.writebacks::writebacks       548618                       # number of writebacks
system.cpu.dcache.writebacks::total            548618                       # number of writebacks
system.cpu.dcache.ReadReq_mshr_misses::cpu.data      2506812                       # number of ReadReq MSHR misses
system.cpu.dcache.ReadReq_mshr_misses::total      2506812                       # number of ReadReq MSHR misses
system.cpu.dcache.WriteReq_mshr_misses::cpu.data       271712                       # number of WriteReq MSHR misses
system.cpu.dcache.WriteReq_mshr_misses::total       271712                       # number of WriteReq MSHR misses
system.cpu.dcache.LoadLockedReq_mshr_misses::cpu.data        37312                       # number of LoadLockedReq MSHR misses
system.cpu.dcache.LoadLockedReq_mshr_misses::total        37312                       # number of LoadLockedReq MSHR misses
system.cpu.dcache.demand_mshr_misses::cpu.data      2778524                       # number of demand (read+write) MSHR misses
system.cpu.dcache.demand_mshr_misses::total      2778524                       # number of demand (read+write) MSHR misses
system.cpu.dcache.overall_mshr_misses::cpu.data      2778524                       # number of overall MSHR misses
system.cpu.dcache.overall_mshr_misses::total      2778524                       # number of overall MSHR misses
system.cpu.dcache.ReadReq_mshr_uncacheable::cpu.data         6973                       # number of ReadReq MSHR uncacheable
system.cpu.dcache.ReadReq_mshr_uncacheable::total         6973                       # number of ReadReq MSHR uncacheable
system.cpu.dcache.WriteReq_mshr_uncacheable::cpu.data        10411                       # number of WriteReq MSHR uncacheable
system.cpu.dcache.WriteReq_mshr_uncacheable::total        10411                       # number of WriteReq MSHR uncacheable
system.cpu.dcache.overall_mshr_uncacheable_misses::cpu.data        17384                       # number of overall MSHR uncacheable misses
system.cpu.dcache.overall_mshr_uncacheable_misses::total        17384                       # number of overall MSHR uncacheable misses
system.cpu.dcache.ReadReq_mshr_miss_latency::cpu.data 201052229500                       # number of ReadReq MSHR miss cycles
system.cpu.dcache.ReadReq_mshr_miss_latency::total 201052229500                       # number of ReadReq MSHR miss cycles
system.cpu.dcache.WriteReq_mshr_miss_latency::cpu.data  22623543500                       # number of WriteReq MSHR miss cycles
system.cpu.dcache.WriteReq_mshr_miss_latency::total  22623543500                       # number of WriteReq MSHR miss cycles
system.cpu.dcache.LoadLockedReq_mshr_miss_latency::cpu.data   2642115500                       # number of LoadLockedReq MSHR miss cycles
system.cpu.dcache.LoadLockedReq_mshr_miss_latency::total   2642115500                       # number of LoadLockedReq MSHR miss cycles
system.cpu.dcache.demand_mshr_miss_latency::cpu.data 223675773000                       # number of demand (read+write) MSHR miss cycles
system.cpu.dcache.demand_mshr_miss_latency::total 223675773000                       # number of demand (read+write) MSHR miss cycles
system.cpu.dcache.overall_mshr_miss_latency::cpu.data 223675773000                       # number of overall MSHR miss cycles
system.cpu.dcache.overall_mshr_miss_latency::total 223675773000                       # number of overall MSHR miss cycles
system.cpu.dcache.ReadReq_mshr_uncacheable_latency::cpu.data   1561241000                       # number of ReadReq MSHR uncacheable cycles
system.cpu.dcache.ReadReq_mshr_uncacheable_latency::total   1561241000                       # number of ReadReq MSHR uncacheable cycles
system.cpu.dcache.overall_mshr_uncacheable_latency::cpu.data   1561241000                       # number of overall MSHR uncacheable cycles
system.cpu.dcache.overall_mshr_uncacheable_latency::total   1561241000                       # number of overall MSHR uncacheable cycles
system.cpu.dcache.ReadReq_mshr_miss_rate::cpu.data     0.149941                       # mshr miss rate for ReadReq accesses
system.cpu.dcache.ReadReq_mshr_miss_rate::total     0.149941                       # mshr miss rate for ReadReq accesses
system.cpu.dcache.WriteReq_mshr_miss_rate::cpu.data     0.031667                       # mshr miss rate for WriteReq accesses
system.cpu.dcache.WriteReq_mshr_miss_rate::total     0.031667                       # mshr miss rate for WriteReq accesses
system.cpu.dcache.LoadLockedReq_mshr_miss_rate::cpu.data     0.117692                       # mshr miss rate for LoadLockedReq accesses
system.cpu.dcache.LoadLockedReq_mshr_miss_rate::total     0.117692                       # mshr miss rate for LoadLockedReq accesses
system.cpu.dcache.demand_mshr_miss_rate::cpu.data     0.109828                       # mshr miss rate for demand accesses
system.cpu.dcache.demand_mshr_miss_rate::total     0.109828                       # mshr miss rate for demand accesses
system.cpu.dcache.overall_mshr_miss_rate::cpu.data     0.109828                       # mshr miss rate for overall accesses
system.cpu.dcache.overall_mshr_miss_rate::total     0.109828                       # mshr miss rate for overall accesses
system.cpu.dcache.ReadReq_avg_mshr_miss_latency::cpu.data 80202.356419                       # average ReadReq mshr miss latency
system.cpu.dcache.ReadReq_avg_mshr_miss_latency::total 80202.356419                       # average ReadReq mshr miss latency
system.cpu.dcache.WriteReq_avg_mshr_miss_latency::cpu.data 83262.953053                       # average WriteReq mshr miss latency
system.cpu.dcache.WriteReq_avg_mshr_miss_latency::total 83262.953053                       # average WriteReq mshr miss latency
system.cpu.dcache.LoadLockedReq_avg_mshr_miss_latency::cpu.data 70811.414558                       # average LoadLockedReq mshr miss latency
system.cpu.dcache.LoadLockedReq_avg_mshr_miss_latency::total 70811.414558                       # average LoadLockedReq mshr miss latency
system.cpu.dcache.demand_avg_mshr_miss_latency::cpu.data 80501.652316                       # average overall mshr miss latency
system.cpu.dcache.demand_avg_mshr_miss_latency::total 80501.652316                       # average overall mshr miss latency
system.cpu.dcache.overall_avg_mshr_miss_latency::cpu.data 80501.652316                       # average overall mshr miss latency
system.cpu.dcache.overall_avg_mshr_miss_latency::total 80501.652316                       # average overall mshr miss latency
system.cpu.dcache.ReadReq_avg_mshr_uncacheable_latency::cpu.data 223898.035279                       # average ReadReq mshr uncacheable latency
system.cpu.dcache.ReadReq_avg_mshr_uncacheable_latency::total 223898.035279                       # average ReadReq mshr uncacheable latency
system.cpu.dcache.overall_avg_mshr_uncacheable_latency::cpu.data 89809.077312                       # average overall mshr uncacheable latency
system.cpu.dcache.overall_avg_mshr_uncacheable_latency::total 89809.077312                       # average overall mshr uncacheable latency
system.cpu.icache.tags.pwrStateResidencyTicks::UNDEFINED 2640909915500                       # Cumulative time (in ticks) in various power states
system.cpu.icache.tags.replacements           1650571                       # number of replacements
system.cpu.icache.tags.tagsinuse            63.996175                       # Cycle average of tags in use
system.cpu.icache.tags.total_refs            95839081                       # Total number of references to valid blocks.
system.cpu.icache.tags.sampled_refs           1650571                       # Sample count of references to valid blocks.
system.cpu.icache.tags.avg_refs             58.064198                       # Average number of references to valid blocks.
system.cpu.icache.tags.warmup_cycle         884305500                       # Cycle when the warmup percentage was hit.
system.cpu.icache.tags.occ_blocks::cpu.inst    63.996175                       # Average occupied blocks per requestor
system.cpu.icache.tags.occ_percent::cpu.inst     0.999940                       # Average percentage of cache occupancy
system.cpu.icache.tags.occ_percent::total     0.999940                       # Average percentage of cache occupancy
system.cpu.icache.tags.occ_task_id_blocks::1024           64                       # Occupied blocks per task id
system.cpu.icache.tags.age_task_id_blocks_1024::0           44                       # Occupied blocks per task id
system.cpu.icache.tags.age_task_id_blocks_1024::1           19                       # Occupied blocks per task id
system.cpu.icache.tags.age_task_id_blocks_1024::2            1                       # Occupied blocks per task id
system.cpu.icache.tags.occ_task_id_percent::1024            1                       # Percentage of cache occupancy per task id
system.cpu.icache.tags.tag_accesses         196635317                       # Number of tag accesses
system.cpu.icache.tags.data_accesses        196635317                       # Number of data accesses
system.cpu.icache.pwrStateResidencyTicks::UNDEFINED 2640909915500                       # Cumulative time (in ticks) in various power states
system.cpu.icache.ReadReq_hits::cpu.inst     95841463                       # number of ReadReq hits
system.cpu.icache.ReadReq_hits::total        95841463                       # number of ReadReq hits
system.cpu.icache.demand_hits::cpu.inst      95841463                       # number of demand (read+write) hits
system.cpu.icache.demand_hits::total         95841463                       # number of demand (read+write) hits
system.cpu.icache.overall_hits::cpu.inst     95841463                       # number of overall hits
system.cpu.icache.overall_hits::total        95841463                       # number of overall hits
system.cpu.icache.ReadReq_misses::cpu.inst      1650797                       # number of ReadReq misses
system.cpu.icache.ReadReq_misses::total       1650797                       # number of ReadReq misses
system.cpu.icache.demand_misses::cpu.inst      1650797                       # number of demand (read+write) misses
system.cpu.icache.demand_misses::total        1650797                       # number of demand (read+write) misses
system.cpu.icache.overall_misses::cpu.inst      1650797                       # number of overall misses
system.cpu.icache.overall_misses::total       1650797                       # number of overall misses
system.cpu.icache.ReadReq_miss_latency::cpu.inst  91449470500                       # number of ReadReq miss cycles
system.cpu.icache.ReadReq_miss_latency::total  91449470500                       # number of ReadReq miss cycles
system.cpu.icache.demand_miss_latency::cpu.inst  91449470500                       # number of demand (read+write) miss cycles
system.cpu.icache.demand_miss_latency::total  91449470500                       # number of demand (read+write) miss cycles
system.cpu.icache.overall_miss_latency::cpu.inst  91449470500                       # number of overall miss cycles
system.cpu.icache.overall_miss_latency::total  91449470500                       # number of overall miss cycles
system.cpu.icache.ReadReq_accesses::cpu.inst     97492260                       # number of ReadReq accesses(hits+misses)
system.cpu.icache.ReadReq_accesses::total     97492260                       # number of ReadReq accesses(hits+misses)
system.cpu.icache.demand_accesses::cpu.inst     97492260                       # number of demand (read+write) accesses
system.cpu.icache.demand_accesses::total     97492260                       # number of demand (read+write) accesses
system.cpu.icache.overall_accesses::cpu.inst     97492260                       # number of overall (read+write) accesses
system.cpu.icache.overall_accesses::total     97492260                       # number of overall (read+write) accesses
system.cpu.icache.ReadReq_miss_rate::cpu.inst     0.016933                       # miss rate for ReadReq accesses
system.cpu.icache.ReadReq_miss_rate::total     0.016933                       # miss rate for ReadReq accesses
system.cpu.icache.demand_miss_rate::cpu.inst     0.016933                       # miss rate for demand accesses
system.cpu.icache.demand_miss_rate::total     0.016933                       # miss rate for demand accesses
system.cpu.icache.overall_miss_rate::cpu.inst     0.016933                       # miss rate for overall accesses
system.cpu.icache.overall_miss_rate::total     0.016933                       # miss rate for overall accesses
system.cpu.icache.ReadReq_avg_miss_latency::cpu.inst 55397.163007                       # average ReadReq miss latency
system.cpu.icache.ReadReq_avg_miss_latency::total 55397.163007                       # average ReadReq miss latency
system.cpu.icache.demand_avg_miss_latency::cpu.inst 55397.163007                       # average overall miss latency
system.cpu.icache.demand_avg_miss_latency::total 55397.163007                       # average overall miss latency
system.cpu.icache.overall_avg_miss_latency::cpu.inst 55397.163007                       # average overall miss latency
system.cpu.icache.overall_avg_miss_latency::total 55397.163007                       # average overall miss latency
system.cpu.icache.blocked_cycles::no_mshrs            0                       # number of cycles access was blocked
system.cpu.icache.blocked_cycles::no_targets            0                       # number of cycles access was blocked
system.cpu.icache.blocked::no_mshrs                 0                       # number of cycles access was blocked
system.cpu.icache.blocked::no_targets               0                       # number of cycles access was blocked
system.cpu.icache.avg_blocked_cycles::no_mshrs          nan                       # average number of cycles each access was blocked
system.cpu.icache.avg_blocked_cycles::no_targets          nan                       # average number of cycles each access was blocked
system.cpu.icache.writebacks::writebacks      1650571                       # number of writebacks
system.cpu.icache.writebacks::total           1650571                       # number of writebacks
system.cpu.icache.ReadReq_mshr_misses::cpu.inst      1650797                       # number of ReadReq MSHR misses
system.cpu.icache.ReadReq_mshr_misses::total      1650797                       # number of ReadReq MSHR misses
system.cpu.icache.demand_mshr_misses::cpu.inst      1650797                       # number of demand (read+write) MSHR misses
system.cpu.icache.demand_mshr_misses::total      1650797                       # number of demand (read+write) MSHR misses
system.cpu.icache.overall_mshr_misses::cpu.inst      1650797                       # number of overall MSHR misses
system.cpu.icache.overall_mshr_misses::total      1650797                       # number of overall MSHR misses
system.cpu.icache.ReadReq_mshr_miss_latency::cpu.inst  89798673500                       # number of ReadReq MSHR miss cycles
system.cpu.icache.ReadReq_mshr_miss_latency::total  89798673500                       # number of ReadReq MSHR miss cycles
system.cpu.icache.demand_mshr_miss_latency::cpu.inst  89798673500                       # number of demand (read+write) MSHR miss cycles
system.cpu.icache.demand_mshr_miss_latency::total  89798673500                       # number of demand (read+write) MSHR miss cycles
system.cpu.icache.overall_mshr_miss_latency::cpu.inst  89798673500                       # number of overall MSHR miss cycles
system.cpu.icache.overall_mshr_miss_latency::total  89798673500                       # number of overall MSHR miss cycles
system.cpu.icache.ReadReq_mshr_miss_rate::cpu.inst     0.016933                       # mshr miss rate for ReadReq accesses
[...]
system.l2.ReadReq_avg_mshr_uncacheable_latency::total 211527.049180                       # average ReadReq mshr uncacheable latency
system.l2.overall_avg_mshr_uncacheable_latency::cpu.data 120141.061453                       # average overall mshr uncacheable latency
system.l2.overall_avg_mshr_uncacheable_latency::total 120141.061453                       # average overall mshr uncacheable latency
system.membus.snoop_filter.tot_requests         95748                       # Total number of requests made to the snoop filter.
system.membus.snoop_filter.hit_single_requests        48649                       # Number of requests hitting in the snoop filter with a single holder of the requested data.
system.membus.snoop_filter.hit_multi_requests           27                       # Number of requests hitting in the snoop filter with multiple (>1) holders of the requested data.
system.membus.snoop_filter.tot_snoops               0                       # Total number of snoops made to the snoop filter.
system.membus.snoop_filter.hit_single_snoops            0                       # Number of snoops hitting in the snoop filter with a single holder of the requested data.
system.membus.snoop_filter.hit_multi_snoops            0                       # Number of snoops hitting in the snoop filter with multiple (>1) holders of the requested data.
system.membus.pwrStateResidencyTicks::UNDEFINED   7085768000                       # Cumulative time (in ticks) in various power states
system.membus.trans_dist::ReadReq                 610                       # Transaction distribution
system.membus.trans_dist::ReadResp              34599                       # Transaction distribution
system.membus.trans_dist::WriteReq                464                       # Transaction distribution
system.membus.trans_dist::WriteResp               464                       # Transaction distribution
system.membus.trans_dist::WritebackDirty        16274                       # Transaction distribution
system.membus.trans_dist::CleanEvict            30823                       # Transaction distribution
system.membus.trans_dist::ReadExReq              7471                       # Transaction distribution
system.membus.trans_dist::ReadExResp             7471                       # Transaction distribution
system.membus.trans_dist::ReadSharedReq         33989                       # Transaction distribution
system.membus.trans_dist::InvalidateReq          5664                       # Transaction distribution
system.membus.pkt_count_system.iocache.mem_side::system.mem_ctrls.port        11382                       # Packet count per connected master and slave (bytes)
system.membus.pkt_count_system.iocache.mem_side::total        11382                       # Packet count per connected master and slave (bytes)
system.membus.pkt_count_system.l2.mem_side::system.bridge.slave         2148                       # Packet count per connected master and slave (bytes)
system.membus.pkt_count_system.l2.mem_side::system.mem_ctrls.port       124272                       # Packet count per connected master and slave (bytes)
system.membus.pkt_count_system.l2.mem_side::total       126420                       # Packet count per connected master and slave (bytes)
system.membus.pkt_count::total                 137802                       # Packet count per connected master and slave (bytes)
system.membus.pkt_size_system.iocache.mem_side::system.mem_ctrls.port       724992                       # Cumulative packet size per connected master and slave (bytes)
system.membus.pkt_size_system.iocache.mem_side::total       724992                       # Cumulative packet size per connected master and slave (bytes)
system.membus.pkt_size_system.l2.mem_side::system.bridge.slave         1735                       # Cumulative packet size per connected master and slave (bytes)
system.membus.pkt_size_system.l2.mem_side::system.mem_ctrls.port      6661504                       # Cumulative packet size per connected master and slave (bytes)
system.membus.pkt_size_system.l2.mem_side::total      6663239                       # Cumulative packet size per connected master and slave (bytes)
system.membus.pkt_size::total                 7388231                       # Cumulative packet size per connected master and slave (bytes)
system.membus.snoops                               27                       # Total snoops (count)
system.membus.snoopTraffic                       3456                       # Total snoop traffic (bytes)
system.membus.snoop_fanout::samples             48198                       # Request fanout histogram
system.membus.snoop_fanout::mean             0.000560                       # Request fanout histogram
system.membus.snoop_fanout::stdev            0.023662                       # Request fanout histogram
system.membus.snoop_fanout::underflows              0      0.00%      0.00% # Request fanout histogram
system.membus.snoop_fanout::0                   48171     99.94%     99.94% # Request fanout histogram
system.membus.snoop_fanout::1                      27      0.06%    100.00% # Request fanout histogram
system.membus.snoop_fanout::2                       0      0.00%    100.00% # Request fanout histogram
system.membus.snoop_fanout::overflows               0      0.00%    100.00% # Request fanout histogram
system.membus.snoop_fanout::min_value               0                       # Request fanout histogram
system.membus.snoop_fanout::max_value               1                       # Request fanout histogram
system.membus.snoop_fanout::total               48198                       # Request fanout histogram
system.membus.reqLayer0.occupancy             1783000                       # Layer occupancy (ticks)
system.membus.reqLayer0.utilization               0.0                       # Layer utilization (%)
system.membus.reqLayer1.occupancy           228044681                       # Layer occupancy (ticks)
system.membus.reqLayer1.utilization               3.2                       # Layer utilization (%)
system.membus.respLayer1.occupancy             256015                       # Layer occupancy (ticks)
system.membus.respLayer1.utilization              0.0                       # Layer utilization (%)
system.membus.respLayer2.occupancy          391689250                       # Layer occupancy (ticks)
system.membus.respLayer2.utilization              5.5                       # Layer utilization (%)
system.membus.badaddr_responder.pwrStateResidencyTicks::UNDEFINED   7085768000                       # Cumulative time (in ticks) in various power states
system.tol2bus.snoop_filter.tot_requests       144254                       # Total number of requests made to the snoop filter.
system.tol2bus.snoop_filter.hit_single_requests        72132                       # Number of requests hitting in the snoop filter with a single holder of the requested data.
system.tol2bus.snoop_filter.hit_multi_requests          293                       # Number of requests hitting in the snoop filter with multiple (>1) holders of the requested data.
system.tol2bus.snoop_filter.tot_snoops           9508                       # Total number of snoops made to the snoop filter.
system.tol2bus.snoop_filter.hit_single_snoops         9453                       # Number of snoops hitting in the snoop filter with a single holder of the requested data.
system.tol2bus.snoop_filter.hit_multi_snoops           55                       # Number of snoops hitting in the snoop filter with multiple (>1) holders of the requested data.
system.tol2bus.pwrStateResidencyTicks::UNDEFINED   7085768000                       # Cumulative time (in ticks) in various power states
system.tol2bus.trans_dist::ReadReq                610                       # Transaction distribution
system.tol2bus.trans_dist::ReadResp             64377                       # Transaction distribution
system.tol2bus.trans_dist::WriteReq               464                       # Transaction distribution
system.tol2bus.trans_dist::WriteResp              464                       # Transaction distribution
system.tol2bus.trans_dist::WritebackDirty        25109                       # Transaction distribution
system.tol2bus.trans_dist::WritebackClean        41117                       # Transaction distribution
system.tol2bus.trans_dist::CleanEvict           52697                       # Transaction distribution
system.tol2bus.trans_dist::UpgradeReq               1                       # Transaction distribution
system.tol2bus.trans_dist::UpgradeResp              1                       # Transaction distribution
system.tol2bus.trans_dist::ReadExReq             8388                       # Transaction distribution
system.tol2bus.trans_dist::ReadExResp            8388                       # Transaction distribution
system.tol2bus.trans_dist::ReadCleanReq         41120                       # Transaction distribution
system.tol2bus.trans_dist::ReadSharedReq        22647                       # Transaction distribution
system.tol2bus.pkt_count_system.cpu.icache.mem_side::system.l2.cpu_side       123357                       # Packet count per connected master and slave (bytes)
system.tol2bus.pkt_count_system.cpu.dcache.mem_side::system.l2.cpu_side        95201                       # Packet count per connected master and slave (bytes)
system.tol2bus.pkt_count::total                218558                       # Packet count per connected master and slave (bytes)
system.tol2bus.pkt_size_system.cpu.icache.mem_side::system.l2.cpu_side     10526336                       # Cumulative packet size per connected master and slave (bytes)
system.tol2bus.pkt_size_system.cpu.dcache.mem_side::system.l2.cpu_side      5830087                       # Cumulative packet size per connected master and slave (bytes)
system.tol2bus.pkt_size::total               16356423                       # Cumulative packet size per connected master and slave (bytes)
system.tol2bus.snoops                           46852                       # Total snoops (count)
system.tol2bus.snoopTraffic                   1361536                       # Total snoop traffic (bytes)
system.tol2bus.snoop_fanout::samples           120028                       # Request fanout histogram
system.tol2bus.snoop_fanout::mean            0.082123                       # Request fanout histogram
system.tol2bus.snoop_fanout::stdev           0.276216                       # Request fanout histogram
system.tol2bus.snoop_fanout::underflows             0      0.00%      0.00% # Request fanout histogram
system.tol2bus.snoop_fanout::0                 110226     91.83%     91.83% # Request fanout histogram
system.tol2bus.snoop_fanout::1                   9747      8.12%     99.95% # Request fanout histogram
system.tol2bus.snoop_fanout::2                     55      0.05%    100.00% # Request fanout histogram
system.tol2bus.snoop_fanout::overflows              0      0.00%    100.00% # Request fanout histogram
system.tol2bus.snoop_fanout::min_value              0                       # Request fanout histogram
system.tol2bus.snoop_fanout::max_value              2                       # Request fanout histogram
system.tol2bus.snoop_fanout::total             120028                       # Request fanout histogram
system.tol2bus.reqLayer0.occupancy          184128000                       # Layer occupancy (ticks)
system.tol2bus.reqLayer0.utilization              2.6                       # Layer utilization (%)
system.tol2bus.snoopLayer0.occupancy            74985                       # Layer occupancy (ticks)
system.tol2bus.snoopLayer0.utilization            0.0                       # Layer utilization (%)
system.tol2bus.respLayer0.occupancy         102800000                       # Layer occupancy (ticks)
system.tol2bus.respLayer0.utilization             1.5                       # Layer utilization (%)
system.tol2bus.respLayer1.occupancy          78362500                       # Layer occupancy (ticks)
system.tol2bus.respLayer1.utilization             1.1                       # Layer utilization (%)
system.tsunami.backdoor.pwrStateResidencyTicks::UNDEFINED   7085768000                       # Cumulative time (in ticks) in various power states
system.tsunami.cchip.pwrStateResidencyTicks::UNDEFINED   7085768000                       # Cumulative time (in ticks) in various power states
system.tsunami.pchip.pwrStateResidencyTicks::UNDEFINED   7085768000                       # Cumulative time (in ticks) in various power states
system.tsunami.ethernet.pwrStateResidencyTicks::UNDEFINED   7085768000                       # Cumulative time (in ticks) in various power states
system.tsunami.ethernet.descDMAReads                0                       # Number of descriptors the device read w/ DMA
system.tsunami.ethernet.descDMAWrites               0                       # Number of descriptors the device wrote w/ DMA
system.tsunami.ethernet.descDmaReadBytes            0                       # number of descriptor bytes read w/ DMA
system.tsunami.ethernet.descDmaWriteBytes            0                       # number of descriptor bytes write w/ DMA
system.tsunami.ethernet.postedSwi                   0                       # number of software interrupts posted to CPU
system.tsunami.ethernet.coalescedSwi              nan                       # average number of Swi's coalesced into each post
system.tsunami.ethernet.totalSwi                    0                       # total number of Swi written to ISR
system.tsunami.ethernet.postedRxIdle                0                       # number of rxIdle interrupts posted to CPU
system.tsunami.ethernet.coalescedRxIdle           nan                       # average number of RxIdle's coalesced into each post
system.tsunami.ethernet.totalRxIdle                 0                       # total number of RxIdle written to ISR
system.tsunami.ethernet.postedRxOk                  0                       # number of RxOk interrupts posted to CPU
system.tsunami.ethernet.coalescedRxOk             nan                       # average number of RxOk's coalesced into each post
system.tsunami.ethernet.totalRxOk                   0                       # total number of RxOk written to ISR
system.tsunami.ethernet.postedRxDesc                0                       # number of RxDesc interrupts posted to CPU
system.tsunami.ethernet.coalescedRxDesc           nan                       # average number of RxDesc's coalesced into each post
system.tsunami.ethernet.totalRxDesc                 0                       # total number of RxDesc written to ISR
system.tsunami.ethernet.postedTxOk                  0                       # number of TxOk interrupts posted to CPU
system.tsunami.ethernet.coalescedTxOk             nan                       # average number of TxOk's coalesced into each post
system.tsunami.ethernet.totalTxOk                   0                       # total number of TxOk written to ISR
system.tsunami.ethernet.postedTxIdle                0                       # number of TxIdle interrupts posted to CPU
system.tsunami.ethernet.coalescedTxIdle           nan                       # average number of TxIdle's coalesced into each post
system.tsunami.ethernet.totalTxIdle                 0                       # total number of TxIdle written to ISR
system.tsunami.ethernet.postedTxDesc                0                       # number of TxDesc interrupts posted to CPU
system.tsunami.ethernet.coalescedTxDesc           nan                       # average number of TxDesc's coalesced into each post
system.tsunami.ethernet.totalTxDesc                 0                       # total number of TxDesc written to ISR
system.tsunami.ethernet.postedRxOrn                 0                       # number of RxOrn posted to CPU
system.tsunami.ethernet.coalescedRxOrn            nan                       # average number of RxOrn's coalesced into each post
system.tsunami.ethernet.totalRxOrn                  0                       # total number of RxOrn written to ISR
system.tsunami.ethernet.coalescedTotal            nan                       # average number of interrupts coalesced into each post
system.tsunami.ethernet.postedInterrupts            0                       # number of posts to CPU
system.tsunami.ethernet.droppedPackets              0                       # number of packets dropped
system.tsunami.fake_OROM.pwrStateResidencyTicks::UNDEFINED   7085768000                       # Cumulative time (in ticks) in various power states
system.tsunami.fake_ata0.pwrStateResidencyTicks::UNDEFINED   7085768000                       # Cumulative time (in ticks) in various power states
system.tsunami.fake_ata1.pwrStateResidencyTicks::UNDEFINED   7085768000                       # Cumulative time (in ticks) in various power states
system.tsunami.fake_pnp_addr.pwrStateResidencyTicks::UNDEFINED   7085768000                       # Cumulative time (in ticks) in various power states
system.tsunami.fake_pnp_read0.pwrStateResidencyTicks::UNDEFINED   7085768000                       # Cumulative time (in ticks) in various power states
system.tsunami.fake_pnp_read1.pwrStateResidencyTicks::UNDEFINED   7085768000                       # Cumulative time (in ticks) in various power states
system.tsunami.fake_pnp_read2.pwrStateResidencyTicks::UNDEFINED   7085768000                       # Cumulative time (in ticks) in various power states
system.tsunami.fake_pnp_read3.pwrStateResidencyTicks::UNDEFINED   7085768000                       # Cumulative time (in ticks) in various power states
system.tsunami.fake_pnp_read4.pwrStateResidencyTicks::UNDEFINED   7085768000                       # Cumulative time (in ticks) in various power states
system.tsunami.fake_pnp_read5.pwrStateResidencyTicks::UNDEFINED   7085768000                       # Cumulative time (in ticks) in various power states
system.tsunami.fake_pnp_read6.pwrStateResidencyTicks::UNDEFINED   7085768000                       # Cumulative time (in ticks) in various power states
system.tsunami.fake_pnp_read7.pwrStateResidencyTicks::UNDEFINED   7085768000                       # Cumulative time (in ticks) in various power states
system.tsunami.fake_pnp_write.pwrStateResidencyTicks::UNDEFINED   7085768000                       # Cumulative time (in ticks) in various power states
system.tsunami.fake_ppc.pwrStateResidencyTicks::UNDEFINED   7085768000                       # Cumulative time (in ticks) in various power states
system.tsunami.fake_sm_chip.pwrStateResidencyTicks::UNDEFINED   7085768000                       # Cumulative time (in ticks) in various power states
system.tsunami.fake_uart1.pwrStateResidencyTicks::UNDEFINED   7085768000                       # Cumulative time (in ticks) in various power states
system.tsunami.fake_uart2.pwrStateResidencyTicks::UNDEFINED   7085768000                       # Cumulative time (in ticks) in various power states
system.tsunami.fake_uart3.pwrStateResidencyTicks::UNDEFINED   7085768000                       # Cumulative time (in ticks) in various power states
system.tsunami.fake_uart4.pwrStateResidencyTicks::UNDEFINED   7085768000                       # Cumulative time (in ticks) in various power states
system.tsunami.fb.pwrStateResidencyTicks::UNDEFINED   7085768000                       # Cumulative time (in ticks) in various power states
system.tsunami.ide.pwrStateResidencyTicks::UNDEFINED   7085768000                       # Cumulative time (in ticks) in various power states
system.tsunami.io.pwrStateResidencyTicks::UNDEFINED   7085768000                       # Cumulative time (in ticks) in various power states
system.tsunami.uart.pwrStateResidencyTicks::UNDEFINED   7085768000                       # Cumulative time (in ticks) in various power states

---------- End Simulation Statistics   ----------
