
---------- Begin Simulation Statistics ----------
sim_seconds                                  2.460627                       # Number of seconds simulated
sim_ticks                                2460627478500                       # Number of ticks simulated
final_tick                               2460627478500                       # Number of ticks from beginning of simulation (restored from checkpoints and never reset)
sim_freq                                 1000000000000                       # Frequency of simulated ticks
host_inst_rate                                 249425                       # Simulator instruction rate (inst/s)
host_op_rate                                   249425                       # Simulator op (including micro ops) rate (op/s)
host_tick_rate                             5462316384                       # Simulator tick rate (ticks/s)
host_mem_usage                                 750700                       # Number of bytes of host memory used
host_seconds                                   450.47                       # Real time elapsed on the host
sim_insts                                   112359376                       # Number of instructions simulated
sim_ops                                     112359376                       # Number of ops (including micro ops) simulated
system.voltage_domain.voltage                       1                       # Voltage in Volts
system.clk_domain.clock                          1000                       # Clock period in ticks
system.mem_ctrls.pwrStateResidencyTicks::UNDEFINED 2460627478500                       # Cumulative time (in ticks) in various power states
system.mem_ctrls.bytes_read::cpu0.inst         787904                       # Number of bytes read from this memory
system.mem_ctrls.bytes_read::cpu0.data       21264928                       # Number of bytes read from this memory
system.mem_ctrls.bytes_read::cpu1.inst          67840                       # Number of bytes read from this memory
system.mem_ctrls.bytes_read::cpu1.data         778048                       # Number of bytes read from this memory
system.mem_ctrls.bytes_read::cpu2.inst         758112                       # Number of bytes read from this memory
system.mem_ctrls.bytes_read::cpu2.data        3658336                       # Number of bytes read from this memory
system.mem_ctrls.bytes_read::cpu3.inst         312384                       # Number of bytes read from this memory
system.mem_ctrls.bytes_read::cpu3.data        1101760                       # Number of bytes read from this memory
system.mem_ctrls.bytes_read::tsunami.ide         4032                       # Number of bytes read from this memory
system.mem_ctrls.bytes_read::total           28733344                       # Number of bytes read from this memory
system.mem_ctrls.bytes_inst_read::cpu0.inst       787904                       # Number of instructions bytes read from this memory
system.mem_ctrls.bytes_inst_read::cpu1.inst        67840                       # Number of instructions bytes read from this memory
system.mem_ctrls.bytes_inst_read::cpu2.inst       758112                       # Number of instructions bytes read from this memory
system.mem_ctrls.bytes_inst_read::cpu3.inst       312384                       # Number of instructions bytes read from this memory
system.mem_ctrls.bytes_inst_read::total       1926240                       # Number of instructions bytes read from this memory
system.mem_ctrls.bytes_written::writebacks     21748224                       # Number of bytes written to this memory
system.mem_ctrls.bytes_written::total        21748224                       # Number of bytes written to this memory
system.mem_ctrls.num_reads::cpu0.inst           24622                       # Number of read requests responded to by this memory
system.mem_ctrls.num_reads::cpu0.data          664529                       # Number of read requests responded to by this memory
system.mem_ctrls.num_reads::cpu1.inst            2120                       # Number of read requests responded to by this memory
system.mem_ctrls.num_reads::cpu1.data           24314                       # Number of read requests responded to by this memory
system.mem_ctrls.num_reads::cpu2.inst           23691                       # Number of read requests responded to by this memory
system.mem_ctrls.num_reads::cpu2.data          114323                       # Number of read requests responded to by this memory
system.mem_ctrls.num_reads::cpu3.inst            9762                       # Number of read requests responded to by this memory
system.mem_ctrls.num_reads::cpu3.data           34430                       # Number of read requests responded to by this memory
system.mem_ctrls.num_reads::tsunami.ide           126                       # Number of read requests responded to by this memory
system.mem_ctrls.num_reads::total              897917                       # Number of read requests responded to by this memory
system.mem_ctrls.num_writes::writebacks        679632                       # Number of write requests responded to by this memory
system.mem_ctrls.num_writes::total             679632                       # Number of write requests responded to by this memory
system.mem_ctrls.bw_read::cpu0.inst            320205                       # Total read bandwidth from this memory (bytes/s)
system.mem_ctrls.bw_read::cpu0.data           8642075                       # Total read bandwidth from this memory (bytes/s)
system.mem_ctrls.bw_read::cpu1.inst             27570                       # Total read bandwidth from this memory (bytes/s)
system.mem_ctrls.bw_read::cpu1.data            316199                       # Total read bandwidth from this memory (bytes/s)
system.mem_ctrls.bw_read::cpu2.inst            308097                       # Total read bandwidth from this memory (bytes/s)
system.mem_ctrls.bw_read::cpu2.data           1486749                       # Total read bandwidth from this memory (bytes/s)
system.mem_ctrls.bw_read::cpu3.inst            126953                       # Total read bandwidth from this memory (bytes/s)
system.mem_ctrls.bw_read::cpu3.data            447756                       # Total read bandwidth from this memory (bytes/s)
system.mem_ctrls.bw_read::tsunami.ide            1639                       # Total read bandwidth from this memory (bytes/s)
system.mem_ctrls.bw_read::total              11677243                       # Total read bandwidth from this memory (bytes/s)
system.mem_ctrls.bw_inst_read::cpu0.inst       320205                       # Instruction read bandwidth from this memory (bytes/s)
system.mem_ctrls.bw_inst_read::cpu1.inst        27570                       # Instruction read bandwidth from this memory (bytes/s)
system.mem_ctrls.bw_inst_read::cpu2.inst       308097                       # Instruction read bandwidth from this memory (bytes/s)
system.mem_ctrls.bw_inst_read::cpu3.inst       126953                       # Instruction read bandwidth from this memory (bytes/s)
system.mem_ctrls.bw_inst_read::total           782825                       # Instruction read bandwidth from this memory (bytes/s)
system.mem_ctrls.bw_write::writebacks         8838487                       # Write bandwidth from this memory (bytes/s)
system.mem_ctrls.bw_write::total              8838487                       # Write bandwidth from this memory (bytes/s)
system.mem_ctrls.bw_total::writebacks         8838487                       # Total bandwidth to/from this memory (bytes/s)
system.mem_ctrls.bw_total::cpu0.inst           320205                       # Total bandwidth to/from this memory (bytes/s)
system.mem_ctrls.bw_total::cpu0.data          8642075                       # Total bandwidth to/from this memory (bytes/s)
system.mem_ctrls.bw_total::cpu1.inst            27570                       # Total bandwidth to/from this memory (bytes/s)
system.mem_ctrls.bw_total::cpu1.data           316199                       # Total bandwidth to/from this memory (bytes/s)
system.mem_ctrls.bw_total::cpu2.inst           308097                       # Total bandwidth to/from this memory (bytes/s)
system.mem_ctrls.bw_total::cpu2.data          1486749                       # Total bandwidth to/from this memory (bytes/s)
system.mem_ctrls.bw_total::cpu3.inst           126953                       # Total bandwidth to/from this memory (bytes/s)
system.mem_ctrls.bw_total::cpu3.data           447756                       # Total bandwidth to/from this memory (bytes/s)
system.mem_ctrls.bw_total::tsunami.ide           1639                       # Total bandwidth to/from this memory (bytes/s)
system.mem_ctrls.bw_total::total             20515730                       # Total bandwidth to/from this memory (bytes/s)
system.mem_ctrls.readReqs                      897917                       # Number of read requests accepted
system.mem_ctrls.writeReqs                     679632                       # Number of write requests accepted
system.mem_ctrls.readBursts                    897917                       # Number of DRAM read bursts, including those serviced by the write queue
system.mem_ctrls.writeBursts                   679632                       # Number of DRAM write bursts, including those merged in the write queue
system.mem_ctrls.bytesReadDRAM               57443712                       # Total number of bytes read from DRAM
system.mem_ctrls.bytesReadWrQ                   22976                       # Total number of bytes read from write queue
system.mem_ctrls.bytesWritten                29043008                       # Total number of bytes written to DRAM
system.mem_ctrls.bytesReadSys                28733344                       # Total read bytes from the system interface side
system.mem_ctrls.bytesWrittenSys             21748224                       # Total written bytes from the system interface side
system.mem_ctrls.servicedByWrQ                    359                       # Number of DRAM read bursts serviced by the write queue
system.mem_ctrls.mergedWrBursts                225810                       # Number of DRAM write bursts merged with an existing one
system.mem_ctrls.neitherReadNorWriteReqs            0                       # Number of requests that are neither read nor write
system.mem_ctrls.perBankRdBursts::0             53254                       # Per bank write bursts
system.mem_ctrls.perBankRdBursts::1             55449                       # Per bank write bursts
system.mem_ctrls.perBankRdBursts::2             53224                       # Per bank write bursts
system.mem_ctrls.perBankRdBursts::3             53769                       # Per bank write bursts
system.mem_ctrls.perBankRdBursts::4             55395                       # Per bank write bursts
system.mem_ctrls.perBankRdBursts::5             54277                       # Per bank write bursts
system.mem_ctrls.perBankRdBursts::6             59920                       # Per bank write bursts
system.mem_ctrls.perBankRdBursts::7             60017                       # Per bank write bursts
system.mem_ctrls.perBankRdBursts::8             52463                       # Per bank write bursts
system.mem_ctrls.perBankRdBursts::9             54097                       # Per bank write bursts
system.mem_ctrls.perBankRdBursts::10            53019                       # Per bank write bursts
system.mem_ctrls.perBankRdBursts::11            60252                       # Per bank write bursts
system.mem_ctrls.perBankRdBursts::12            57891                       # Per bank write bursts
system.mem_ctrls.perBankRdBursts::13            56810                       # Per bank write bursts
system.mem_ctrls.perBankRdBursts::14            56977                       # Per bank write bursts
system.mem_ctrls.perBankRdBursts::15            60744                       # Per bank write bursts
system.mem_ctrls.perBankWrBursts::0             28760                       # Per bank write bursts
system.mem_ctrls.perBankWrBursts::1             29006                       # Per bank write bursts
system.mem_ctrls.perBankWrBursts::2             26883                       # Per bank write bursts
system.mem_ctrls.perBankWrBursts::3             27907                       # Per bank write bursts
system.mem_ctrls.perBankWrBursts::4             28112                       # Per bank write bursts
system.mem_ctrls.perBankWrBursts::5             27748                       # Per bank write bursts
system.mem_ctrls.perBankWrBursts::6             29176                       # Per bank write bursts
system.mem_ctrls.perBankWrBursts::7             29501                       # Per bank write bursts
system.mem_ctrls.perBankWrBursts::8             25224                       # Per bank write bursts
system.mem_ctrls.perBankWrBursts::9             26280                       # Per bank write bursts
system.mem_ctrls.perBankWrBursts::10            27004                       # Per bank write bursts
system.mem_ctrls.perBankWrBursts::11            30370                       # Per bank write bursts
system.mem_ctrls.perBankWrBursts::12            28444                       # Per bank write bursts
system.mem_ctrls.perBankWrBursts::13            27794                       # Per bank write bursts
system.mem_ctrls.perBankWrBursts::14            29855                       # Per bank write bursts
system.mem_ctrls.perBankWrBursts::15            31733                       # Per bank write bursts
system.mem_ctrls.numRdRetry                         0                       # Number of times read queue was full causing retry
system.mem_ctrls.numWrRetry                        58                       # Number of times write queue was full causing retry
system.mem_ctrls.totGap                  2460627383500                       # Total gap between requests
system.mem_ctrls.readPktSize::0                     0                       # Read request sizes (log2)
system.mem_ctrls.readPktSize::1                     0                       # Read request sizes (log2)
system.mem_ctrls.readPktSize::2                     0                       # Read request sizes (log2)
system.mem_ctrls.readPktSize::3                     0                       # Read request sizes (log2)
system.mem_ctrls.readPktSize::4                     0                       # Read request sizes (log2)
system.mem_ctrls.readPktSize::5                897917                       # Read request sizes (log2)
system.mem_ctrls.readPktSize::6                     0                       # Read request sizes (log2)
system.mem_ctrls.writePktSize::0                    0                       # Write request sizes (log2)
system.mem_ctrls.writePktSize::1                    0                       # Write request sizes (log2)
system.mem_ctrls.writePktSize::2                    0                       # Write request sizes (log2)
system.mem_ctrls.writePktSize::3                    0                       # Write request sizes (log2)
system.mem_ctrls.writePktSize::4                    0                       # Write request sizes (log2)
system.mem_ctrls.writePktSize::5               679632                       # Write request sizes (log2)
system.mem_ctrls.writePktSize::6                    0                       # Write request sizes (log2)
system.mem_ctrls.rdQLenPdf::0                  894754                       # What read queue length does an incoming req see
system.mem_ctrls.rdQLenPdf::1                    2563                       # What read queue length does an incoming req see
system.mem_ctrls.rdQLenPdf::2                     116                       # What read queue length does an incoming req see
system.mem_ctrls.rdQLenPdf::3                       8                       # What read queue length does an incoming req see
system.mem_ctrls.rdQLenPdf::4                       8                       # What read queue length does an incoming req see
system.mem_ctrls.rdQLenPdf::5                       8                       # What read queue length does an incoming req see
system.mem_ctrls.rdQLenPdf::6                      14                       # What read queue length does an incoming req see
system.mem_ctrls.rdQLenPdf::7                       9                       # What read queue length does an incoming req see
system.mem_ctrls.rdQLenPdf::8                      24                       # What read queue length does an incoming req see
system.mem_ctrls.rdQLenPdf::9                      23                       # What read queue length does an incoming req see
system.mem_ctrls.rdQLenPdf::10                      6                       # What read queue length does an incoming req see
system.mem_ctrls.rdQLenPdf::11                      7                       # What read queue length does an incoming req see
system.mem_ctrls.rdQLenPdf::12                      2                       # What read queue length does an incoming req see
system.mem_ctrls.rdQLenPdf::13                      2                       # What read queue length does an incoming req see
system.mem_ctrls.rdQLenPdf::14                      2                       # What read queue length does an incoming req see
system.mem_ctrls.rdQLenPdf::15                      2                       # What read queue length does an incoming req see
system.mem_ctrls.rdQLenPdf::16                      2                       # What read queue length does an incoming req see
system.mem_ctrls.rdQLenPdf::17                      2                       # What read queue length does an incoming req see
system.mem_ctrls.rdQLenPdf::18                      2                       # What read queue length does an incoming req see
system.mem_ctrls.rdQLenPdf::19                      3                       # What read queue length does an incoming req see
system.mem_ctrls.rdQLenPdf::20                      1                       # What read queue length does an incoming req see
system.mem_ctrls.rdQLenPdf::21                      0                       # What read queue length does an incoming req see
system.mem_ctrls.rdQLenPdf::22                      0                       # What read queue length does an incoming req see
system.mem_ctrls.rdQLenPdf::23                      0                       # What read queue length does an incoming req see
system.mem_ctrls.rdQLenPdf::24                      0                       # What read queue length does an incoming req see
system.mem_ctrls.rdQLenPdf::25                      0                       # What read queue length does an incoming req see
system.mem_ctrls.rdQLenPdf::26                      0                       # What read queue length does an incoming req see
system.mem_ctrls.rdQLenPdf::27                      0                       # What read queue length does an incoming req see
system.mem_ctrls.rdQLenPdf::28                      0                       # What read queue length does an incoming req see
system.mem_ctrls.rdQLenPdf::29                      0                       # What read queue length does an incoming req see
system.mem_ctrls.rdQLenPdf::30                      0                       # What read queue length does an incoming req see
system.mem_ctrls.rdQLenPdf::31                      0                       # What read queue length does an incoming req see
system.mem_ctrls.wrQLenPdf::0                       1                       # What write queue length does an incoming req see
system.mem_ctrls.wrQLenPdf::1                       1                       # What write queue length does an incoming req see
system.mem_ctrls.wrQLenPdf::2                       1                       # What write queue length does an incoming req see
system.mem_ctrls.wrQLenPdf::3                       1                       # What write queue length does an incoming req see
system.mem_ctrls.wrQLenPdf::4                       1                       # What write queue length does an incoming req see
system.mem_ctrls.wrQLenPdf::5                       1                       # What write queue length does an incoming req see
system.mem_ctrls.wrQLenPdf::6                       1                       # What write queue length does an incoming req see
system.mem_ctrls.wrQLenPdf::7                       1                       # What write queue length does an incoming req see
system.mem_ctrls.wrQLenPdf::8                       1                       # What write queue length does an incoming req see
system.mem_ctrls.wrQLenPdf::9                       1                       # What write queue length does an incoming req see
system.mem_ctrls.wrQLenPdf::10                      1                       # What write queue length does an incoming req see
system.mem_ctrls.wrQLenPdf::11                      1                       # What write queue length does an incoming req see
system.mem_ctrls.wrQLenPdf::12                      1                       # What write queue length does an incoming req see
system.mem_ctrls.wrQLenPdf::13                      1                       # What write queue length does an incoming req see
system.mem_ctrls.wrQLenPdf::14                      1                       # What write queue length does an incoming req see
system.mem_ctrls.wrQLenPdf::15                   5044                       # What write queue length does an incoming req see
system.mem_ctrls.wrQLenPdf::16                   5948                       # What write queue length does an incoming req see
system.mem_ctrls.wrQLenPdf::17                  27134                       # What write queue length does an incoming req see
system.mem_ctrls.wrQLenPdf::18                  26940                       # What write queue length does an incoming req see
system.mem_ctrls.wrQLenPdf::19                  26773                       # What write queue length does an incoming req see
system.mem_ctrls.wrQLenPdf::20                  27216                       # What write queue length does an incoming req see
system.mem_ctrls.wrQLenPdf::21                  27357                       # What write queue length does an incoming req see
system.mem_ctrls.wrQLenPdf::22                  27519                       # What write queue length does an incoming req see
system.mem_ctrls.wrQLenPdf::23                  28812                       # What write queue length does an incoming req see
system.mem_ctrls.wrQLenPdf::24                  27586                       # What write queue length does an incoming req see
system.mem_ctrls.wrQLenPdf::25                  27608                       # What write queue length does an incoming req see
system.mem_ctrls.wrQLenPdf::26                  28426                       # What write queue length does an incoming req see
system.mem_ctrls.wrQLenPdf::27                  27375                       # What write queue length does an incoming req see
system.mem_ctrls.wrQLenPdf::28                  27394                       # What write queue length does an incoming req see
system.mem_ctrls.wrQLenPdf::29                  27289                       # What write queue length does an incoming req see
system.mem_ctrls.wrQLenPdf::30                  27179                       # What write queue length does an incoming req see
system.mem_ctrls.wrQLenPdf::31                  26699                       # What write queue length does an incoming req see
system.mem_ctrls.wrQLenPdf::32                  26602                       # What write queue length does an incoming req see
system.mem_ctrls.wrQLenPdf::33                    301                       # What write queue length does an incoming req see
system.mem_ctrls.wrQLenPdf::34                    325                       # What write queue length does an incoming req see
system.mem_ctrls.wrQLenPdf::35                    243                       # What write queue length does an incoming req see
system.mem_ctrls.wrQLenPdf::36                    265                       # What write queue length does an incoming req see
system.mem_ctrls.wrQLenPdf::37                    256                       # What write queue length does an incoming req see
system.mem_ctrls.wrQLenPdf::38                    251                       # What write queue length does an incoming req see
system.mem_ctrls.wrQLenPdf::39                    245                       # What write queue length does an incoming req see
system.mem_ctrls.wrQLenPdf::40                    221                       # What write queue length does an incoming req see
system.mem_ctrls.wrQLenPdf::41                    232                       # What write queue length does an incoming req see
system.mem_ctrls.wrQLenPdf::42                    219                       # What write queue length does an incoming req see
system.mem_ctrls.wrQLenPdf::43                    170                       # What write queue length does an incoming req see
system.mem_ctrls.wrQLenPdf::44                    181                       # What write queue length does an incoming req see
system.mem_ctrls.wrQLenPdf::45                    156                       # What write queue length does an incoming req see
system.mem_ctrls.wrQLenPdf::46                    119                       # What write queue length does an incoming req see
system.mem_ctrls.wrQLenPdf::47                    126                       # What write queue length does an incoming req see
system.mem_ctrls.wrQLenPdf::48                    107                       # What write queue length does an incoming req see
system.mem_ctrls.wrQLenPdf::49                    105                       # What write queue length does an incoming req see
system.mem_ctrls.wrQLenPdf::50                    112                       # What write queue length does an incoming req see
system.mem_ctrls.wrQLenPdf::51                    134                       # What write queue length does an incoming req see
system.mem_ctrls.wrQLenPdf::52                    125                       # What write queue length does an incoming req see
system.mem_ctrls.wrQLenPdf::53                     99                       # What write queue length does an incoming req see
system.mem_ctrls.wrQLenPdf::54                     84                       # What write queue length does an incoming req see
system.mem_ctrls.wrQLenPdf::55                     73                       # What write queue length does an incoming req see
system.mem_ctrls.wrQLenPdf::56                     71                       # What write queue length does an incoming req see
system.mem_ctrls.wrQLenPdf::57                     62                       # What write queue length does an incoming req see
system.mem_ctrls.wrQLenPdf::58                    120                       # What write queue length does an incoming req see
system.mem_ctrls.wrQLenPdf::59                    119                       # What write queue length does an incoming req see
system.mem_ctrls.wrQLenPdf::60                    157                       # What write queue length does an incoming req see
system.mem_ctrls.wrQLenPdf::61                     84                       # What write queue length does an incoming req see
system.mem_ctrls.wrQLenPdf::62                     77                       # What write queue length does an incoming req see
system.mem_ctrls.wrQLenPdf::63                     67                       # What write queue length does an incoming req see
system.mem_ctrls.bytesPerActivate::samples       213542                       # Bytes accessed per row activation
system.mem_ctrls.bytesPerActivate::mean    405.007952                       # Bytes accessed per row activation
system.mem_ctrls.bytesPerActivate::gmean   232.307157                       # Bytes accessed per row activation
system.mem_ctrls.bytesPerActivate::stdev   384.459287                       # Bytes accessed per row activation
system.mem_ctrls.bytesPerActivate::0-127        67598     31.66%     31.66% # Bytes accessed per row activation
system.mem_ctrls.bytesPerActivate::128-255        43193     20.23%     51.88% # Bytes accessed per row activation
system.mem_ctrls.bytesPerActivate::256-383        18748      8.78%     60.66% # Bytes accessed per row activation
system.mem_ctrls.bytesPerActivate::384-511        12402      5.81%     66.47% # Bytes accessed per row activation
system.mem_ctrls.bytesPerActivate::512-639         8250      3.86%     70.33% # Bytes accessed per row activation
system.mem_ctrls.bytesPerActivate::640-767         6204      2.91%     73.24% # Bytes accessed per row activation
system.mem_ctrls.bytesPerActivate::768-895         6189      2.90%     76.14% # Bytes accessed per row activation
system.mem_ctrls.bytesPerActivate::896-1023         5358      2.51%     78.65% # Bytes accessed per row activation
system.mem_ctrls.bytesPerActivate::1024-1151        45600     21.35%    100.00% # Bytes accessed per row activation
system.mem_ctrls.bytesPerActivate::total       213542                       # Bytes accessed per row activation
system.mem_ctrls.rdPerTurnAround::samples        26361                       # Reads before turning the bus around for writes
system.mem_ctrls.rdPerTurnAround::mean      34.048101                       # Reads before turning the bus around for writes
system.mem_ctrls.rdPerTurnAround::stdev    404.962041                       # Reads before turning the bus around for writes
system.mem_ctrls.rdPerTurnAround::0-2047        26353     99.97%     99.97% # Reads before turning the bus around for writes
system.mem_ctrls.rdPerTurnAround::2048-4095            5      0.02%     99.99% # Reads before turning the bus around for writes
system.mem_ctrls.rdPerTurnAround::16384-18431            1      0.00%     99.99% # Reads before turning the bus around for writes
system.mem_ctrls.rdPerTurnAround::36864-38911            1      0.00%    100.00% # Reads before turning the bus around for writes
system.mem_ctrls.rdPerTurnAround::49152-51199            1      0.00%    100.00% # Reads before turning the bus around for writes
system.mem_ctrls.rdPerTurnAround::total         26361                       # Reads before turning the bus around for writes
system.mem_ctrls.wrPerTurnAround::samples        26361                       # Writes before turning the bus around for reads
system.mem_ctrls.wrPerTurnAround::mean      17.214711                       # Writes before turning the bus around for reads
system.mem_ctrls.wrPerTurnAround::gmean     16.858986                       # Writes before turning the bus around for reads
system.mem_ctrls.wrPerTurnAround::stdev      5.206381                       # Writes before turning the bus around for reads
system.mem_ctrls.wrPerTurnAround::16-17         21269     80.68%     80.68% # Writes before turning the bus around for reads
system.mem_ctrls.wrPerTurnAround::18-19          3883     14.73%     95.41% # Writes before turning the bus around for reads
system.mem_ctrls.wrPerTurnAround::20-21            54      0.20%     95.62% # Writes before turning the bus around for reads
system.mem_ctrls.wrPerTurnAround::22-23             8      0.03%     95.65% # Writes before turning the bus around for reads
system.mem_ctrls.wrPerTurnAround::24-25            17      0.06%     95.71% # Writes before turning the bus around for reads
system.mem_ctrls.wrPerTurnAround::26-27           410      1.56%     97.27% # Writes before turning the bus around for reads
system.mem_ctrls.wrPerTurnAround::28-29            46      0.17%     97.44% # Writes before turning the bus around for reads
system.mem_ctrls.wrPerTurnAround::30-31            15      0.06%     97.50% # Writes before turning the bus around for reads
system.mem_ctrls.wrPerTurnAround::32-33           228      0.86%     98.37% # Writes before turning the bus around for reads
system.mem_ctrls.wrPerTurnAround::34-35            24      0.09%     98.46% # Writes before turning the bus around for reads
system.mem_ctrls.wrPerTurnAround::36-37            47      0.18%     98.63% # Writes before turning the bus around for reads
system.mem_ctrls.wrPerTurnAround::38-39            27      0.10%     98.74% # Writes before turning the bus around for reads
system.mem_ctrls.wrPerTurnAround::40-41           184      0.70%     99.43% # Writes before turning the bus around for reads
system.mem_ctrls.wrPerTurnAround::42-43            15      0.06%     99.49% # Writes before turning the bus around for reads
system.mem_ctrls.wrPerTurnAround::44-45             5      0.02%     99.51% # Writes before turning the bus around for reads
system.mem_ctrls.wrPerTurnAround::46-47             6      0.02%     99.53% # Writes before turning the bus around for reads
system.mem_ctrls.wrPerTurnAround::48-49            13      0.05%     99.58% # Writes before turning the bus around for reads
system.mem_ctrls.wrPerTurnAround::50-51             2      0.01%     99.59% # Writes before turning the bus around for reads
system.mem_ctrls.wrPerTurnAround::52-53             3      0.01%     99.60% # Writes before turning the bus around for reads
system.mem_ctrls.wrPerTurnAround::54-55             7      0.03%     99.63% # Writes before turning the bus around for reads
system.mem_ctrls.wrPerTurnAround::56-57             2      0.01%     99.64% # Writes before turning the bus around for reads
system.mem_ctrls.wrPerTurnAround::58-59             3      0.01%     99.65% # Writes before turning the bus around for reads
system.mem_ctrls.wrPerTurnAround::60-61             3      0.01%     99.66% # Writes before turning the bus around for reads
system.mem_ctrls.wrPerTurnAround::62-63             1      0.00%     99.66% # Writes before turning the bus around for reads
system.mem_ctrls.wrPerTurnAround::64-65             9      0.03%     99.70% # Writes before turning the bus around for reads
system.mem_ctrls.wrPerTurnAround::66-67             4      0.02%     99.71% # Writes before turning the bus around for reads
system.mem_ctrls.wrPerTurnAround::68-69            16      0.06%     99.77% # Writes before turning the bus around for reads
system.mem_ctrls.wrPerTurnAround::70-71             5      0.02%     99.79% # Writes before turning the bus around for reads
system.mem_ctrls.wrPerTurnAround::72-73             6      0.02%     99.81% # Writes before turning the bus around for reads
system.mem_ctrls.wrPerTurnAround::74-75             5      0.02%     99.83% # Writes before turning the bus around for reads
system.mem_ctrls.wrPerTurnAround::76-77             1      0.00%     99.84% # Writes before turning the bus around for reads
system.mem_ctrls.wrPerTurnAround::78-79             2      0.01%     99.84% # Writes before turning the bus around for reads
system.mem_ctrls.wrPerTurnAround::80-81             5      0.02%     99.86% # Writes before turning the bus around for reads
system.mem_ctrls.wrPerTurnAround::84-85             3      0.01%     99.87% # Writes before turning the bus around for reads
system.mem_ctrls.wrPerTurnAround::86-87             1      0.00%     99.88% # Writes before turning the bus around for reads
system.mem_ctrls.wrPerTurnAround::88-89             1      0.00%     99.88% # Writes before turning the bus around for reads
system.mem_ctrls.wrPerTurnAround::90-91             8      0.03%     99.91% # Writes before turning the bus around for reads
system.mem_ctrls.wrPerTurnAround::92-93             5      0.02%     99.93% # Writes before turning the bus around for reads
system.mem_ctrls.wrPerTurnAround::94-95             5      0.02%     99.95% # Writes before turning the bus around for reads
system.mem_ctrls.wrPerTurnAround::96-97             3      0.01%     99.96% # Writes before turning the bus around for reads
system.mem_ctrls.wrPerTurnAround::98-99             3      0.01%     99.97% # Writes before turning the bus around for reads
system.mem_ctrls.wrPerTurnAround::100-101            2      0.01%     99.98% # Writes before turning the bus around for reads
system.mem_ctrls.wrPerTurnAround::102-103            2      0.01%     99.99% # Writes before turning the bus around for reads
system.mem_ctrls.wrPerTurnAround::108-109            1      0.00%     99.99% # Writes before turning the bus around for reads
system.mem_ctrls.wrPerTurnAround::116-117            2      0.01%    100.00% # Writes before turning the bus around for reads
system.mem_ctrls.wrPerTurnAround::total         26361                       # Writes before turning the bus around for reads
system.mem_ctrls.totQLat                  16461096511                       # Total ticks spent queuing
system.mem_ctrls.totMemAccLat             33290309011                       # Total ticks spent from burst creation until serviced by the DRAM
system.mem_ctrls.totBusLat                 4487790000                       # Total ticks spent in databus transfers
system.mem_ctrls.avgQLat                     18339.87                       # Average queueing delay per DRAM burst
system.mem_ctrls.avgBusLat                    5000.00                       # Average bus latency per DRAM burst
system.mem_ctrls.avgMemAccLat                37089.87                       # Average memory access latency per DRAM burst
system.mem_ctrls.avgRdBW                        23.35                       # Average DRAM read bandwidth in MiByte/s
system.mem_ctrls.avgWrBW                        11.80                       # Average achieved write bandwidth in MiByte/s
system.mem_ctrls.avgRdBWSys                     11.68                       # Average system read bandwidth in MiByte/s
system.mem_ctrls.avgWrBWSys                      8.84                       # Average system write bandwidth in MiByte/s
system.mem_ctrls.peakBW                      12800.00                       # Theoretical peak bandwidth in MiByte/s
system.mem_ctrls.busUtil                         0.27                       # Data bus utilization in percentage
system.mem_ctrls.busUtilRead                     0.18                       # Data bus utilization in percentage for reads
system.mem_ctrls.busUtilWrite                    0.09                       # Data bus utilization in percentage for writes
system.mem_ctrls.avgRdQLen                       1.02                       # Average read queue length when enqueuing
system.mem_ctrls.avgWrQLen                      26.72                       # Average write queue length when enqueuing
system.mem_ctrls.readRowHits                   774831                       # Number of row buffer hits during reads
system.mem_ctrls.writeRowHits                  362977                       # Number of row buffer hits during writes
system.mem_ctrls.readRowHitRate                 86.33                       # Row buffer hit rate for reads
system.mem_ctrls.writeRowHitRate                79.98                       # Row buffer hit rate for writes
system.mem_ctrls.avgGap                    1559778.73                       # Average gap between requests
system.mem_ctrls.pageHitRate                    84.20                       # Row buffer hit rate, read and write combined
system.mem_ctrls_0.actEnergy                742495740                       # Energy for activate commands per rank (pJ)
system.mem_ctrls_0.preEnergy                394638255                       # Energy for precharge commands per rank (pJ)
system.mem_ctrls_0.readEnergy              3179477700                       # Energy for read commands per rank (pJ)
system.mem_ctrls_0.writeEnergy             1185425460                       # Energy for write commands per rank (pJ)
system.mem_ctrls_0.refreshEnergy         15158866320.000002                       # Energy for refresh commands per rank (pJ)
system.mem_ctrls_0.actBackEnergy          13473224520                       # Energy for active background per rank (pJ)
system.mem_ctrls_0.preBackEnergy            884648640                       # Energy for precharge background per rank (pJ)
system.mem_ctrls_0.actPowerDownEnergy     37960500330                       # Energy for active power-down per rank (pJ)
system.mem_ctrls_0.prePowerDownEnergy     17951416800                       # Energy for precharge power-down per rank (pJ)
system.mem_ctrls_0.selfRefreshEnergy     554006095380                       # Energy for self refresh per rank (pJ)
system.mem_ctrls_0.totalEnergy           644944321335                       # Total energy per rank (pJ)
system.mem_ctrls_0.averagePower            262.105632                       # Core power per rank (mW)
system.mem_ctrls_0.totalIdleTime         2428760610249                       # Total Idle time Per DRAM Rank
system.mem_ctrls_0.memoryStateTime::IDLE   1355938500                       # Time in different power states
system.mem_ctrls_0.memoryStateTime::REF    6438390000                       # Time in different power states
system.mem_ctrls_0.memoryStateTime::SREF 2298765267000                       # Time in different power states
system.mem_ctrls_0.memoryStateTime::PRE_PDN  46748408000                       # Time in different power states
system.mem_ctrls_0.memoryStateTime::ACT   24072349751                       # Time in different power states
system.mem_ctrls_0.memoryStateTime::ACT_PDN  83247125249                       # Time in different power states
system.mem_ctrls_1.actEnergy                782229840                       # Energy for activate commands per rank (pJ)
system.mem_ctrls_1.preEnergy                415753635                       # Energy for precharge commands per rank (pJ)
system.mem_ctrls_1.readEnergy              3229086420                       # Energy for read commands per rank (pJ)
system.mem_ctrls_1.writeEnergy             1183394880                       # Energy for write commands per rank (pJ)
system.mem_ctrls_1.refreshEnergy         15578050800.000002                       # Energy for refresh commands per rank (pJ)
system.mem_ctrls_1.actBackEnergy          13827132390                       # Energy for active background per rank (pJ)
system.mem_ctrls_1.preBackEnergy            879982080                       # Energy for precharge background per rank (pJ)
system.mem_ctrls_1.actPowerDownEnergy     40343406420                       # Energy for active power-down per rank (pJ)
system.mem_ctrls_1.prePowerDownEnergy     18101230080                       # Energy for precharge power-down per rank (pJ)
system.mem_ctrls_1.selfRefreshEnergy     552393771000                       # Energy for self refresh per rank (pJ)
system.mem_ctrls_1.totalEnergy           646740809115                       # Total energy per rank (pJ)
system.mem_ctrls_1.averagePower            262.835726                       # Core power per rank (mW)
system.mem_ctrls_1.totalIdleTime         2427998203741                       # Total Idle time Per DRAM Rank
system.mem_ctrls_1.memoryStateTime::IDLE   1340591750                       # Time in different power states
system.mem_ctrls_1.memoryStateTime::REF    6614942000                       # Time in different power states
system.mem_ctrls_1.memoryStateTime::SREF 2292387163500                       # Time in different power states
system.mem_ctrls_1.memoryStateTime::PRE_PDN  47138749250                       # Time in different power states
system.mem_ctrls_1.memoryStateTime::ACT   24673682259                       # Time in different power states
system.mem_ctrls_1.memoryStateTime::ACT_PDN  88472349741                       # Time in different power states
system.pwrStateResidencyTicks::UNDEFINED 2460627478500                       # Cumulative time (in ticks) in various power states
system.bridge.pwrStateResidencyTicks::UNDEFINED 2460627478500                       # Cumulative time (in ticks) in various power states
system.cpu_voltage_domain.voltage                   1                       # Voltage in Volts
system.cpu_clk_domain.clock                       500                       # Clock period in ticks
system.cpu0.dtb.fetch_hits                          0                       # ITB hits
system.cpu0.dtb.fetch_misses                        0                       # ITB misses
system.cpu0.dtb.fetch_acv                           0                       # ITB acv
system.cpu0.dtb.fetch_accesses                      0                       # ITB accesses
system.cpu0.dtb.read_hits                    11481379                       # DTB read hits
system.cpu0.dtb.read_misses                      2599                       # DTB read misses
system.cpu0.dtb.read_acv                           12                       # DTB read access violations
system.cpu0.dtb.read_accesses                  176649                       # DTB read accesses
system.cpu0.dtb.write_hits                    5566961                       # DTB write hits
system.cpu0.dtb.write_misses                      321                       # DTB write misses
system.cpu0.dtb.write_acv                          38                       # DTB write access violations
system.cpu0.dtb.write_accesses                  77095                       # DTB write accesses
system.cpu0.dtb.data_hits                    17048340                       # DTB hits
system.cpu0.dtb.data_misses                      2920                       # DTB misses
system.cpu0.dtb.data_acv                           50                       # DTB access violations
system.cpu0.dtb.data_accesses                  253744                       # DTB accesses
system.cpu0.itb.fetch_hits                    2219637                       # ITB hits
system.cpu0.itb.fetch_misses                     1079                       # ITB misses
system.cpu0.itb.fetch_acv                           0                       # ITB acv
system.cpu0.itb.fetch_accesses                2220716                       # ITB accesses
system.cpu0.itb.read_hits                           0                       # DTB read hits
system.cpu0.itb.read_misses                         0                       # DTB read misses
system.cpu0.itb.read_acv                            0                       # DTB read access violations
system.cpu0.itb.read_accesses                       0                       # DTB read accesses
system.cpu0.itb.write_hits                          0                       # DTB write hits
system.cpu0.itb.write_misses                        0                       # DTB write misses
system.cpu0.itb.write_acv                           0                       # DTB write access violations
system.cpu0.itb.write_accesses                      0                       # DTB write accesses
system.cpu0.itb.data_hits                           0                       # DTB hits
system.cpu0.itb.data_misses                         0                       # DTB misses
system.cpu0.itb.data_acv                            0                       # DTB access violations
system.cpu0.itb.data_accesses                       0                       # DTB accesses
system.cpu0.numPwrStateTransitions              14151                       # Number of power state transitions
system.cpu0.pwrStateClkGateDist::samples         7076                       # Distribution of time spent in the clock gated state
system.cpu0.pwrStateClkGateDist::mean    320862250.494630                       # Distribution of time spent in the clock gated state
system.cpu0.pwrStateClkGateDist::stdev   449522257.949590                       # Distribution of time spent in the clock gated state
system.cpu0.pwrStateClkGateDist::1000-5e+10         7076    100.00%    100.00% # Distribution of time spent in the clock gated state
system.cpu0.pwrStateClkGateDist::min_value        41500                       # Distribution of time spent in the clock gated state
system.cpu0.pwrStateClkGateDist::max_value   2000000000                       # Distribution of time spent in the clock gated state
system.cpu0.pwrStateClkGateDist::total           7076                       # Distribution of time spent in the clock gated state
system.cpu0.pwrStateResidencyTicks::ON   190206194000                       # Cumulative time (in ticks) in various power states
system.cpu0.pwrStateResidencyTicks::CLK_GATED 2270421284500                       # Cumulative time (in ticks) in various power states
system.cpu0.numCycles                      4919933509                       # number of cpu cycles simulated
system.cpu0.numWorkItemsStarted                     0                       # number of work items this cpu started
system.cpu0.numWorkItemsCompleted                   0                       # number of work items this cpu completed
system.cpu0.kern.inst.arm                           0                       # number of arm instructions executed
system.cpu0.kern.inst.quiesce                    7076                       # number of quiesce instructions executed
system.cpu0.kern.callpal::cserve                    1      0.00%      0.00% # number of callpals executed
system.cpu0.kern.callpal::wripir                 1031      0.82%      0.82% # number of callpals executed
system.cpu0.kern.callpal::wrmces                    1      0.00%      0.82% # number of callpals executed
system.cpu0.kern.callpal::wrfen                     1      0.00%      0.82% # number of callpals executed
system.cpu0.kern.callpal::wrvptptr                  1      0.00%      0.82% # number of callpals executed
system.cpu0.kern.callpal::swpctx                 2031      1.61%      2.44% # number of callpals executed
system.cpu0.kern.callpal::tbi                      13      0.01%      2.45% # number of callpals executed
system.cpu0.kern.callpal::wrent                     7      0.01%      2.45% # number of callpals executed
system.cpu0.kern.callpal::swpipl               113543     90.22%     92.68% # number of callpals executed
system.cpu0.kern.callpal::rdps                   5231      4.16%     96.83% # number of callpals executed
system.cpu0.kern.callpal::wrkgp                     1      0.00%     96.83% # number of callpals executed
system.cpu0.kern.callpal::wrusp                     3      0.00%     96.84% # number of callpals executed
system.cpu0.kern.callpal::rdusp                     4      0.00%     96.84% # number of callpals executed
system.cpu0.kern.callpal::whami                     2      0.00%     96.84% # number of callpals executed
system.cpu0.kern.callpal::rti                    3808      3.03%     99.87% # number of callpals executed
system.cpu0.kern.callpal::callsys                 125      0.10%     99.97% # number of callpals executed
system.cpu0.kern.callpal::imb                      43      0.03%    100.00% # number of callpals executed
system.cpu0.kern.callpal::total                125846                       # number of callpals executed
system.cpu0.kern.inst.hwrei                    133153                       # number of hwrei instructions executed
system.cpu0.kern.mode_switch::kernel             5738                       # number of protection mode switches
system.cpu0.kern.mode_switch::user                443                       # number of protection mode switches
system.cpu0.kern.mode_switch::idle                  0                       # number of protection mode switches
system.cpu0.kern.mode_good::kernel                443                      
system.cpu0.kern.mode_good::user                  443                      
system.cpu0.kern.mode_good::idle                    0                      
system.cpu0.kern.mode_switch_good::kernel     0.077205                       # fraction of useful protection mode switches
system.cpu0.kern.mode_switch_good::user             1                       # fraction of useful protection mode switches
system.cpu0.kern.mode_switch_good::idle           nan                       # fraction of useful protection mode switches
system.cpu0.kern.mode_switch_good::total     0.143343                       # fraction of useful protection mode switches
system.cpu0.kern.mode_ticks::kernel      2456264983500     99.91%     99.91% # number of ticks spent at the given mode
system.cpu0.kern.mode_ticks::user          2145406000      0.09%    100.00% # number of ticks spent at the given mode
system.cpu0.kern.mode_ticks::idle                   0      0.00%    100.00% # number of ticks spent at the given mode
system.cpu0.kern.swap_context                    2032                       # number of times the context was actually changed
system.cpu0.kern.ipl_count::0                   45997     38.14%     38.14% # number of times we switched to this ipl
system.cpu0.kern.ipl_count::21                     11      0.01%     38.15% # number of times we switched to this ipl
system.cpu0.kern.ipl_count::22                   2479      2.06%     40.20% # number of times we switched to this ipl
system.cpu0.kern.ipl_count::30                    767      0.64%     40.84% # number of times we switched to this ipl
system.cpu0.kern.ipl_count::31                  71354     59.16%    100.00% # number of times we switched to this ipl
system.cpu0.kern.ipl_count::total              120608                       # number of times we switched to this ipl
system.cpu0.kern.ipl_good::0                    45874     48.68%     48.68% # number of times we switched to this ipl from a different ipl
system.cpu0.kern.ipl_good::21                      11      0.01%     48.69% # number of times we switched to this ipl from a different ipl
system.cpu0.kern.ipl_good::22                    2479      2.63%     51.32% # number of times we switched to this ipl from a different ipl
system.cpu0.kern.ipl_good::30                     767      0.81%     52.13% # number of times we switched to this ipl from a different ipl
system.cpu0.kern.ipl_good::31                   45109     47.87%    100.00% # number of times we switched to this ipl from a different ipl
system.cpu0.kern.ipl_good::total                94240                       # number of times we switched to this ipl from a different ipl
system.cpu0.kern.ipl_ticks::0            2385923469500     96.99%     96.99% # number of cycles we spent at this ipl
system.cpu0.kern.ipl_ticks::21               10017000      0.00%     96.99% # number of cycles we spent at this ipl
system.cpu0.kern.ipl_ticks::22             1330361000      0.05%     97.04% # number of cycles we spent at this ipl
system.cpu0.kern.ipl_ticks::30              833255500      0.03%     97.08% # number of cycles we spent at this ipl
system.cpu0.kern.ipl_ticks::31            71869611500      2.92%    100.00% # number of cycles we spent at this ipl
system.cpu0.kern.ipl_ticks::total        2459966714500                       # number of cycles we spent at this ipl
system.cpu0.kern.ipl_used::0                 0.997326                       # fraction of swpipl calls that actually changed the ipl
system.cpu0.kern.ipl_used::21                       1                       # fraction of swpipl calls that actually changed the ipl
system.cpu0.kern.ipl_used::22                       1                       # fraction of swpipl calls that actually changed the ipl
system.cpu0.kern.ipl_used::30                       1                       # fraction of swpipl calls that actually changed the ipl
system.cpu0.kern.ipl_used::31                0.632186                       # fraction of swpipl calls that actually changed the ipl
system.cpu0.kern.ipl_used::total             0.781374                       # fraction of swpipl calls that actually changed the ipl
system.cpu0.committedInsts                   67569428                       # Number of instructions committed
system.cpu0.committedOps                     67569428                       # Number of ops (including micro ops) committed
system.cpu0.num_int_alu_accesses             65288451                       # Number of integer alu accesses
system.cpu0.num_fp_alu_accesses                223957                       # Number of float alu accesses
system.cpu0.num_vec_alu_accesses                    0                       # Number of vector alu accesses
system.cpu0.num_func_calls                    2204714                       # number of times a function call or return occured
system.cpu0.num_conditional_control_insts      9016908                       # number of instructions that are conditional controls
system.cpu0.num_int_insts                    65288451                       # number of integer instructions
system.cpu0.num_fp_insts                       223957                       # number of float instructions
system.cpu0.num_vec_insts                           0                       # number of vector instructions
system.cpu0.num_int_register_reads           88642403                       # number of times the integer registers were read
system.cpu0.num_int_register_writes          49784249                       # number of times the integer registers were written
system.cpu0.num_fp_register_reads               74326                       # number of times the floating registers were read
system.cpu0.num_fp_register_writes              75793                       # number of times the floating registers were written
system.cpu0.num_vec_register_reads                  0                       # number of times the vector registers were read
system.cpu0.num_vec_register_writes                 0                       # number of times the vector registers were written
system.cpu0.num_mem_refs                     17073145                       # number of memory refs
system.cpu0.num_load_insts                   11495454                       # Number of load instructions
system.cpu0.num_store_insts                   5577691                       # Number of store instructions
system.cpu0.num_idle_cycles              4539623268.764026                       # Number of idle cycles
system.cpu0.num_busy_cycles              380310240.235974                       # Number of busy cycles
system.cpu0.not_idle_fraction                0.077300                       # Percentage of non-idle cycles
system.cpu0.idle_fraction                    0.922700                       # Percentage of idle cycles
system.cpu0.Branches                         11629550                       # Number of branches fetched
system.cpu0.op_class::No_OpClass              1388983      2.06%      2.06% # Class of executed instruction
system.cpu0.op_class::IntAlu                 47961870     70.98%     73.03% # Class of executed instruction
system.cpu0.op_class::IntMult                  150861      0.22%     73.26% # Class of executed instruction
system.cpu0.op_class::IntDiv                        0      0.00%     73.26% # Class of executed instruction
system.cpu0.op_class::FloatAdd                  92493      0.14%     73.39% # Class of executed instruction
system.cpu0.op_class::FloatCmp                      0      0.00%     73.39% # Class of executed instruction
system.cpu0.op_class::FloatCvt                      0      0.00%     73.39% # Class of executed instruction
system.cpu0.op_class::FloatMult                     0      0.00%     73.39% # Class of executed instruction
system.cpu0.op_class::FloatMultAcc                  0      0.00%     73.39% # Class of executed instruction
system.cpu0.op_class::FloatDiv                   1514      0.00%     73.40% # Class of executed instruction
system.cpu0.op_class::FloatMisc                     0      0.00%     73.40% # Class of executed instruction
system.cpu0.op_class::FloatSqrt                     0      0.00%     73.40% # Class of executed instruction
system.cpu0.op_class::SimdAdd                       0      0.00%     73.40% # Class of executed instruction
system.cpu0.op_class::SimdAddAcc                    0      0.00%     73.40% # Class of executed instruction
system.cpu0.op_class::SimdAlu                       0      0.00%     73.40% # Class of executed instruction
system.cpu0.op_class::SimdCmp                       0      0.00%     73.40% # Class of executed instruction
system.cpu0.op_class::SimdCvt                       0      0.00%     73.40% # Class of executed instruction
system.cpu0.op_class::SimdMisc                      0      0.00%     73.40% # Class of executed instruction
system.cpu0.op_class::SimdMult                      0      0.00%     73.40% # Class of executed instruction
system.cpu0.op_class::SimdMultAcc                   0      0.00%     73.40% # Class of executed instruction
system.cpu0.op_class::SimdShift                     0      0.00%     73.40% # Class of executed instruction
system.cpu0.op_class::SimdShiftAcc                  0      0.00%     73.40% # Class of executed instruction
system.cpu0.op_class::SimdSqrt                      0      0.00%     73.40% # Class of executed instruction
system.cpu0.op_class::SimdFloatAdd                  0      0.00%     73.40% # Class of executed instruction
system.cpu0.op_class::SimdFloatAlu                  0      0.00%     73.40% # Class of executed instruction
system.cpu0.op_class::SimdFloatCmp                  0      0.00%     73.40% # Class of executed instruction
system.cpu0.op_class::SimdFloatCvt                  0      0.00%     73.40% # Class of executed instruction
system.cpu0.op_class::SimdFloatDiv                  0      0.00%     73.40% # Class of executed instruction
system.cpu0.op_class::SimdFloatMisc                 0      0.00%     73.40% # Class of executed instruction
system.cpu0.op_class::SimdFloatMult                 0      0.00%     73.40% # Class of executed instruction
system.cpu0.op_class::SimdFloatMultAcc              0      0.00%     73.40% # Class of executed instruction
system.cpu0.op_class::SimdFloatSqrt                 0      0.00%     73.40% # Class of executed instruction
system.cpu0.op_class::MemRead                11744152     17.38%     90.78% # Class of executed instruction
system.cpu0.op_class::MemWrite                5531157      8.19%     98.96% # Class of executed instruction
system.cpu0.op_class::FloatMemRead              66467      0.10%     99.06% # Class of executed instruction
system.cpu0.op_class::FloatMemWrite             63483      0.09%     99.15% # Class of executed instruction
system.cpu0.op_class::IprAccess                571418      0.85%    100.00% # Class of executed instruction
system.cpu0.op_class::InstPrefetch                  0      0.00%    100.00% # Class of executed instruction
system.cpu0.op_class::total                  67572398                       # Class of executed instruction
system.cpu0.dcache.tags.pwrStateResidencyTicks::UNDEFINED 2460627478500                       # Cumulative time (in ticks) in various power states
system.cpu0.dcache.tags.replacements          2279191                       # number of replacements
system.cpu0.dcache.tags.tagsinuse         1016.622299                       # Cycle average of tags in use
system.cpu0.dcache.tags.total_refs           14700357                       # Total number of references to valid blocks.
system.cpu0.dcache.tags.sampled_refs          2279191                       # Sample count of references to valid blocks.
system.cpu0.dcache.tags.avg_refs             6.449814                       # Average number of references to valid blocks.
system.cpu0.dcache.tags.warmup_cycle        168203500                       # Cycle when the warmup percentage was hit.
system.cpu0.dcache.tags.occ_blocks::cpu0.data  1016.622299                       # Average occupied blocks per requestor
system.cpu0.dcache.tags.occ_percent::cpu0.data     0.992795                       # Average percentage of cache occupancy
system.cpu0.dcache.tags.occ_percent::total     0.992795                       # Average percentage of cache occupancy
system.cpu0.dcache.tags.occ_task_id_blocks::1024          995                       # Occupied blocks per task id
system.cpu0.dcache.tags.age_task_id_blocks_1024::2            3                       # Occupied blocks per task id
system.cpu0.dcache.tags.age_task_id_blocks_1024::3          985                       # Occupied blocks per task id
system.cpu0.dcache.tags.age_task_id_blocks_1024::4            7                       # Occupied blocks per task id
system.cpu0.dcache.tags.occ_task_id_percent::1024     0.971680                       # Percentage of cache occupancy per task id
system.cpu0.dcache.tags.tag_accesses        547961409                       # Number of tag accesses
system.cpu0.dcache.tags.data_accesses       547961409                       # Number of data accesses
system.cpu0.dcache.pwrStateResidencyTicks::UNDEFINED 2460627478500                       # Cumulative time (in ticks) in various power states
system.cpu0.dcache.ReadReq_hits::cpu0.data      9509826                       # number of ReadReq hits
system.cpu0.dcache.ReadReq_hits::total        9509826                       # number of ReadReq hits
system.cpu0.dcache.WriteReq_hits::cpu0.data      4767471                       # number of WriteReq hits
system.cpu0.dcache.WriteReq_hits::total       4767471                       # number of WriteReq hits
system.cpu0.dcache.LoadLockedReq_hits::cpu0.data       207898                       # number of LoadLockedReq hits
system.cpu0.dcache.LoadLockedReq_hits::total       207898                       # number of LoadLockedReq hits
system.cpu0.dcache.StoreCondReq_hits::cpu0.data       210859                       # number of StoreCondReq hits
system.cpu0.dcache.StoreCondReq_hits::total       210859                       # number of StoreCondReq hits
system.cpu0.dcache.demand_hits::cpu0.data     14277297                       # number of demand (read+write) hits
system.cpu0.dcache.demand_hits::total        14277297                       # number of demand (read+write) hits
system.cpu0.dcache.overall_hits::cpu0.data     14277297                       # number of overall hits
system.cpu0.dcache.overall_hits::total       14277297                       # number of overall hits
system.cpu0.dcache.ReadReq_misses::cpu0.data      1755501                       # number of ReadReq misses
system.cpu0.dcache.ReadReq_misses::total      1755501                       # number of ReadReq misses
system.cpu0.dcache.WriteReq_misses::cpu0.data       574206                       # number of WriteReq misses
system.cpu0.dcache.WriteReq_misses::total       574206                       # number of WriteReq misses
system.cpu0.dcache.LoadLockedReq_misses::cpu0.data        14400                       # number of LoadLockedReq misses
system.cpu0.dcache.LoadLockedReq_misses::total        14400                       # number of LoadLockedReq misses
system.cpu0.dcache.StoreCondReq_misses::cpu0.data        11163                       # number of StoreCondReq misses
system.cpu0.dcache.StoreCondReq_misses::total        11163                       # number of StoreCondReq misses
system.cpu0.dcache.demand_misses::cpu0.data      2329707                       # number of demand (read+write) misses
system.cpu0.dcache.demand_misses::total       2329707                       # number of demand (read+write) misses
system.cpu0.dcache.overall_misses::cpu0.data      2329707                       # number of overall misses
system.cpu0.dcache.overall_misses::total      2329707                       # number of overall misses
system.cpu0.dcache.ReadReq_miss_latency::cpu0.data  43311749000                       # number of ReadReq miss cycles
system.cpu0.dcache.ReadReq_miss_latency::total  43311749000                       # number of ReadReq miss cycles
system.cpu0.dcache.WriteReq_miss_latency::cpu0.data  36695813000                       # number of WriteReq miss cycles
system.cpu0.dcache.WriteReq_miss_latency::total  36695813000                       # number of WriteReq miss cycles
system.cpu0.dcache.LoadLockedReq_miss_latency::cpu0.data    159450000                       # number of LoadLockedReq miss cycles
system.cpu0.dcache.LoadLockedReq_miss_latency::total    159450000                       # number of LoadLockedReq miss cycles
system.cpu0.dcache.StoreCondReq_miss_latency::cpu0.data     58171000                       # number of StoreCondReq miss cycles
system.cpu0.dcache.StoreCondReq_miss_latency::total     58171000                       # number of StoreCondReq miss cycles
system.cpu0.dcache.StoreCondFailReq_miss_latency::cpu0.data         5500                       # number of StoreCondFailReq miss cycles
system.cpu0.dcache.StoreCondFailReq_miss_latency::total         5500                       # number of StoreCondFailReq miss cycles
system.cpu0.dcache.demand_miss_latency::cpu0.data  80007562000                       # number of demand (read+write) miss cycles
system.cpu0.dcache.demand_miss_latency::total  80007562000                       # number of demand (read+write) miss cycles
system.cpu0.dcache.overall_miss_latency::cpu0.data  80007562000                       # number of overall miss cycles
system.cpu0.dcache.overall_miss_latency::total  80007562000                       # number of overall miss cycles
system.cpu0.dcache.ReadReq_accesses::cpu0.data     11265327                       # number of ReadReq accesses(hits+misses)
system.cpu0.dcache.ReadReq_accesses::total     11265327                       # number of ReadReq accesses(hits+misses)
system.cpu0.dcache.WriteReq_accesses::cpu0.data      5341677                       # number of WriteReq accesses(hits+misses)
system.cpu0.dcache.WriteReq_accesses::total      5341677                       # number of WriteReq accesses(hits+misses)
system.cpu0.dcache.LoadLockedReq_accesses::cpu0.data       222298                       # number of LoadLockedReq accesses(hits+misses)
system.cpu0.dcache.LoadLockedReq_accesses::total       222298                       # number of LoadLockedReq accesses(hits+misses)
system.cpu0.dcache.StoreCondReq_accesses::cpu0.data       222022                       # number of StoreCondReq accesses(hits+misses)
system.cpu0.dcache.StoreCondReq_accesses::total       222022                       # number of StoreCondReq accesses(hits+misses)
system.cpu0.dcache.demand_accesses::cpu0.data     16607004                       # number of demand (read+write) accesses
system.cpu0.dcache.demand_accesses::total     16607004                       # number of demand (read+write) accesses
system.cpu0.dcache.overall_accesses::cpu0.data     16607004                       # number of overall (read+write) accesses
system.cpu0.dcache.overall_accesses::total     16607004                       # number of overall (read+write) accesses
system.cpu0.dcache.ReadReq_miss_rate::cpu0.data     0.155832                       # miss rate for ReadReq accesses
system.cpu0.dcache.ReadReq_miss_rate::total     0.155832                       # miss rate for ReadReq accesses
system.cpu0.dcache.WriteReq_miss_rate::cpu0.data     0.107495                       # miss rate for WriteReq accesses
system.cpu0.dcache.WriteReq_miss_rate::total     0.107495                       # miss rate for WriteReq accesses
system.cpu0.dcache.LoadLockedReq_miss_rate::cpu0.data     0.064778                       # miss rate for LoadLockedReq accesses
system.cpu0.dcache.LoadLockedReq_miss_rate::total     0.064778                       # miss rate for LoadLockedReq accesses
system.cpu0.dcache.StoreCondReq_miss_rate::cpu0.data     0.050279                       # miss rate for StoreCondReq accesses
system.cpu0.dcache.StoreCondReq_miss_rate::total     0.050279                       # miss rate for StoreCondReq accesses
system.cpu0.dcache.demand_miss_rate::cpu0.data     0.140285                       # miss rate for demand accesses
system.cpu0.dcache.demand_miss_rate::total     0.140285                       # miss rate for demand accesses
system.cpu0.dcache.overall_miss_rate::cpu0.data     0.140285                       # miss rate for overall accesses
system.cpu0.dcache.overall_miss_rate::total     0.140285                       # miss rate for overall accesses
system.cpu0.dcache.ReadReq_avg_miss_latency::cpu0.data 24672.016137                       # average ReadReq miss latency
system.cpu0.dcache.ReadReq_avg_miss_latency::total 24672.016137                       # average ReadReq miss latency
system.cpu0.dcache.WriteReq_avg_miss_latency::cpu0.data 63907.052521                       # average WriteReq miss latency
system.cpu0.dcache.WriteReq_avg_miss_latency::total 63907.052521                       # average WriteReq miss latency
system.cpu0.dcache.LoadLockedReq_avg_miss_latency::cpu0.data 11072.916667                       # average LoadLockedReq miss latency
system.cpu0.dcache.LoadLockedReq_avg_miss_latency::total 11072.916667                       # average LoadLockedReq miss latency
system.cpu0.dcache.StoreCondReq_avg_miss_latency::cpu0.data  5211.054376                       # average StoreCondReq miss latency
system.cpu0.dcache.StoreCondReq_avg_miss_latency::total  5211.054376                       # average StoreCondReq miss latency
system.cpu0.dcache.StoreCondFailReq_avg_miss_latency::cpu0.data          inf                       # average StoreCondFailReq miss latency
system.cpu0.dcache.StoreCondFailReq_avg_miss_latency::total          inf                       # average StoreCondFailReq miss latency
system.cpu0.dcache.demand_avg_miss_latency::cpu0.data 34342.328027                       # average overall miss latency
system.cpu0.dcache.demand_avg_miss_latency::total 34342.328027                       # average overall miss latency
system.cpu0.dcache.overall_avg_miss_latency::cpu0.data 34342.328027                       # average overall miss latency
system.cpu0.dcache.overall_avg_miss_latency::total 34342.328027                       # average overall miss latency
system.cpu0.dcache.blocked_cycles::no_mshrs            0                       # number of cycles access was blocked
system.cpu0.dcache.blocked_cycles::no_targets            0                       # number of cycles access was blocked
system.cpu0.dcache.blocked::no_mshrs                0                       # number of cycles access was blocked
system.cpu0.dcache.blocked::no_targets              0                       # number of cycles access was blocked
system.cpu0.dcache.avg_blocked_cycles::no_mshrs          nan                       # average number of cycles each access was blocked
system.cpu0.dcache.avg_blocked_cycles::no_targets          nan                       # average number of cycles each access was blocked
system.cpu0.dcache.writebacks::writebacks      1895143                       # number of writebacks
system.cpu0.dcache.writebacks::total          1895143                       # number of writebacks
system.cpu0.dcache.ReadReq_mshr_misses::cpu0.data      1755501                       # number of ReadReq MSHR misses
system.cpu0.dcache.ReadReq_mshr_misses::total      1755501                       # number of ReadReq MSHR misses
system.cpu0.dcache.WriteReq_mshr_misses::cpu0.data       574206                       # number of WriteReq MSHR misses
system.cpu0.dcache.WriteReq_mshr_misses::total       574206                       # number of WriteReq MSHR misses
system.cpu0.dcache.LoadLockedReq_mshr_misses::cpu0.data        14400                       # number of LoadLockedReq MSHR misses
system.cpu0.dcache.LoadLockedReq_mshr_misses::total        14400                       # number of LoadLockedReq MSHR misses
system.cpu0.dcache.StoreCondReq_mshr_misses::cpu0.data        11163                       # number of StoreCondReq MSHR misses
system.cpu0.dcache.StoreCondReq_mshr_misses::total        11163                       # number of StoreCondReq MSHR misses
system.cpu0.dcache.demand_mshr_misses::cpu0.data      2329707                       # number of demand (read+write) MSHR misses
system.cpu0.dcache.demand_mshr_misses::total      2329707                       # number of demand (read+write) MSHR misses
system.cpu0.dcache.overall_mshr_misses::cpu0.data      2329707                       # number of overall MSHR misses
system.cpu0.dcache.overall_mshr_misses::total      2329707                       # number of overall MSHR misses
system.cpu0.dcache.ReadReq_mshr_uncacheable::cpu0.data         5218                       # number of ReadReq MSHR uncacheable
system.cpu0.dcache.ReadReq_mshr_uncacheable::total         5218                       # number of ReadReq MSHR uncacheable
system.cpu0.dcache.WriteReq_mshr_uncacheable::cpu0.data         9823                       # number of WriteReq MSHR uncacheable
system.cpu0.dcache.WriteReq_mshr_uncacheable::total         9823                       # number of WriteReq MSHR uncacheable
system.cpu0.dcache.overall_mshr_uncacheable_misses::cpu0.data        15041                       # number of overall MSHR uncacheable misses
system.cpu0.dcache.overall_mshr_uncacheable_misses::total        15041                       # number of overall MSHR uncacheable misses
system.cpu0.dcache.ReadReq_mshr_miss_latency::cpu0.data  41556248000                       # number of ReadReq MSHR miss cycles
system.cpu0.dcache.ReadReq_mshr_miss_latency::total  41556248000                       # number of ReadReq MSHR miss cycles
system.cpu0.dcache.WriteReq_mshr_miss_latency::cpu0.data  36121607000                       # number of WriteReq MSHR miss cycles
system.cpu0.dcache.WriteReq_mshr_miss_latency::total  36121607000                       # number of WriteReq MSHR miss cycles
system.cpu0.dcache.LoadLockedReq_mshr_miss_latency::cpu0.data    145050000                       # number of LoadLockedReq MSHR miss cycles
system.cpu0.dcache.LoadLockedReq_mshr_miss_latency::total    145050000                       # number of LoadLockedReq MSHR miss cycles
system.cpu0.dcache.StoreCondReq_mshr_miss_latency::cpu0.data     47009000                       # number of StoreCondReq MSHR miss cycles
system.cpu0.dcache.StoreCondReq_mshr_miss_latency::total     47009000                       # number of StoreCondReq MSHR miss cycles
system.cpu0.dcache.StoreCondFailReq_mshr_miss_latency::cpu0.data         4500                       # number of StoreCondFailReq MSHR miss cycles
system.cpu0.dcache.StoreCondFailReq_mshr_miss_latency::total         4500                       # number of StoreCondFailReq MSHR miss cycles
system.cpu0.dcache.demand_mshr_miss_latency::cpu0.data  77677855000                       # number of demand (read+write) MSHR miss cycles
system.cpu0.dcache.demand_mshr_miss_latency::total  77677855000                       # number of demand (read+write) MSHR miss cycles
system.cpu0.dcache.overall_mshr_miss_latency::cpu0.data  77677855000                       # number of overall MSHR miss cycles
system.cpu0.dcache.overall_mshr_miss_latency::total  77677855000                       # number of overall MSHR miss cycles
system.cpu0.dcache.ReadReq_mshr_uncacheable_latency::cpu0.data   1188707500                       # number of ReadReq MSHR uncacheable cycles
system.cpu0.dcache.ReadReq_mshr_uncacheable_latency::total   1188707500                       # number of ReadReq MSHR uncacheable cycles
system.cpu0.dcache.overall_mshr_uncacheable_latency::cpu0.data   1188707500                       # number of overall MSHR uncacheable cycles
system.cpu0.dcache.overall_mshr_uncacheable_latency::total   1188707500                       # number of overall MSHR uncacheable cycles
system.cpu0.dcache.ReadReq_mshr_miss_rate::cpu0.data     0.155832                       # mshr miss rate for ReadReq accesses
system.cpu0.dcache.ReadReq_mshr_miss_rate::total     0.155832                       # mshr miss rate for ReadReq accesses
system.cpu0.dcache.WriteReq_mshr_miss_rate::cpu0.data     0.107495                       # mshr miss rate for WriteReq accesses
system.cpu0.dcache.WriteReq_mshr_miss_rate::total     0.107495                       # mshr miss rate for WriteReq accesses
system.cpu0.dcache.LoadLockedReq_mshr_miss_rate::cpu0.data     0.064778                       # mshr miss rate for LoadLockedReq accesses
system.cpu0.dcache.LoadLockedReq_mshr_miss_rate::total     0.064778                       # mshr miss rate for LoadLockedReq accesses
[...]
system.membus.pkt_size::total                 2243797                       # Cumulative packet size per connected master and slave (bytes)
system.membus.snoops                             3228                       # Total snoops (count)
system.membus.snoopTraffic                        864                       # Total snoop traffic (bytes)
system.membus.snoop_fanout::samples             56731                       # Request fanout histogram
system.membus.snoop_fanout::mean             0.047857                       # Request fanout histogram
system.membus.snoop_fanout::stdev            0.213466                       # Request fanout histogram
system.membus.snoop_fanout::underflows              0      0.00%      0.00% # Request fanout histogram
system.membus.snoop_fanout::0                   54016     95.21%     95.21% # Request fanout histogram
system.membus.snoop_fanout::1                    2715      4.79%    100.00% # Request fanout histogram
system.membus.snoop_fanout::2                       0      0.00%    100.00% # Request fanout histogram
system.membus.snoop_fanout::overflows               0      0.00%    100.00% # Request fanout histogram
system.membus.snoop_fanout::min_value               0                       # Request fanout histogram
system.membus.snoop_fanout::max_value               1                       # Request fanout histogram
system.membus.snoop_fanout::total               56731                       # Request fanout histogram
system.membus.reqLayer0.occupancy             1821000                       # Layer occupancy (ticks)
system.membus.reqLayer0.utilization               0.0                       # Layer utilization (%)
system.membus.reqLayer1.occupancy           182713805                       # Layer occupancy (ticks)
system.membus.reqLayer1.utilization               2.9                       # Layer utilization (%)
system.membus.respLayer1.occupancy            2804273                       # Layer occupancy (ticks)
system.membus.respLayer1.utilization              0.0                       # Layer utilization (%)
system.membus.respLayer2.occupancy          107879000                       # Layer occupancy (ticks)
system.membus.respLayer2.utilization              1.7                       # Layer utilization (%)
system.membus.badaddr_responder.pwrStateResidencyTicks::UNDEFINED   6204766000                       # Cumulative time (in ticks) in various power states
system.tol2bus.snoop_filter.tot_requests       275955                       # Total number of requests made to the snoop filter.
system.tol2bus.snoop_filter.hit_single_requests       129681                       # Number of requests hitting in the snoop filter with a single holder of the requested data.
system.tol2bus.snoop_filter.hit_multi_requests        28835                       # Number of requests hitting in the snoop filter with multiple (>1) holders of the requested data.
system.tol2bus.snoop_filter.tot_snoops           2875                       # Total number of snoops made to the snoop filter.
system.tol2bus.snoop_filter.hit_single_snoops         2303                       # Number of snoops hitting in the snoop filter with a single holder of the requested data.
system.tol2bus.snoop_filter.hit_multi_snoops          572                       # Number of snoops hitting in the snoop filter with multiple (>1) holders of the requested data.
system.tol2bus.pwrStateResidencyTicks::UNDEFINED   6204766000                       # Cumulative time (in ticks) in various power states
system.tol2bus.trans_dist::ReadReq                589                       # Transaction distribution
system.tol2bus.trans_dist::ReadResp            109289                       # Transaction distribution
system.tol2bus.trans_dist::WriteReq               470                       # Transaction distribution
system.tol2bus.trans_dist::WriteResp              470                       # Transaction distribution
system.tol2bus.trans_dist::WritebackDirty        53670                       # Transaction distribution
system.tol2bus.trans_dist::WritebackClean        82208                       # Transaction distribution
system.tol2bus.trans_dist::CleanEvict           31492                       # Transaction distribution
system.tol2bus.trans_dist::UpgradeReq             590                       # Transaction distribution
system.tol2bus.trans_dist::SCUpgradeReq           233                       # Transaction distribution
system.tol2bus.trans_dist::UpgradeResp            823                       # Transaction distribution
system.tol2bus.trans_dist::ReadExReq            29846                       # Transaction distribution
system.tol2bus.trans_dist::ReadExResp           29846                       # Transaction distribution
system.tol2bus.trans_dist::ReadCleanReq         82212                       # Transaction distribution
system.tol2bus.trans_dist::ReadSharedReq        26488                       # Transaction distribution
system.tol2bus.trans_dist::InvalidateReq         2688                       # Transaction distribution
system.tol2bus.trans_dist::InvalidateResp          322                       # Transaction distribution
system.tol2bus.pkt_count_system.cpu0.icache.mem_side::system.l2.cpu_side        50754                       # Packet count per connected master and slave (bytes)
system.tol2bus.pkt_count_system.cpu0.dcache.mem_side::system.l2.cpu_side        64094                       # Packet count per connected master and slave (bytes)
system.tol2bus.pkt_count_system.cpu1.icache.mem_side::system.l2.cpu_side        22310                       # Packet count per connected master and slave (bytes)
system.tol2bus.pkt_count_system.cpu1.dcache.mem_side::system.l2.cpu_side        24487                       # Packet count per connected master and slave (bytes)
system.tol2bus.pkt_count_system.cpu2.icache.mem_side::system.l2.cpu_side       151618                       # Packet count per connected master and slave (bytes)
system.tol2bus.pkt_count_system.cpu2.dcache.mem_side::system.l2.cpu_side        64737                       # Packet count per connected master and slave (bytes)
system.tol2bus.pkt_count_system.cpu3.icache.mem_side::system.l2.cpu_side        21941                       # Packet count per connected master and slave (bytes)
system.tol2bus.pkt_count_system.cpu3.dcache.mem_side::system.l2.cpu_side        12905                       # Packet count per connected master and slave (bytes)
system.tol2bus.pkt_count::total                412846                       # Packet count per connected master and slave (bytes)
system.tol2bus.pkt_size_system.cpu0.icache.mem_side::system.l2.cpu_side      1082720                       # Cumulative packet size per connected master and slave (bytes)
system.tol2bus.pkt_size_system.cpu0.dcache.mem_side::system.l2.cpu_side      1140516                       # Cumulative packet size per connected master and slave (bytes)
system.tol2bus.pkt_size_system.cpu1.icache.mem_side::system.l2.cpu_side       475936                       # Cumulative packet size per connected master and slave (bytes)
system.tol2bus.pkt_size_system.cpu1.dcache.mem_side::system.l2.cpu_side       447920                       # Cumulative packet size per connected master and slave (bytes)
system.tol2bus.pkt_size_system.cpu2.icache.mem_side::system.l2.cpu_side      3234432                       # Cumulative packet size per connected master and slave (bytes)
system.tol2bus.pkt_size_system.cpu2.dcache.mem_side::system.l2.cpu_side      1114221                       # Cumulative packet size per connected master and slave (bytes)
system.tol2bus.pkt_size_system.cpu3.icache.mem_side::system.l2.cpu_side       468064                       # Cumulative packet size per connected master and slave (bytes)
system.tol2bus.pkt_size_system.cpu3.dcache.mem_side::system.l2.cpu_side       197588                       # Cumulative packet size per connected master and slave (bytes)
system.tol2bus.pkt_size::total                8161397                       # Cumulative packet size per connected master and slave (bytes)
system.tol2bus.snoops                           38739                       # Total snoops (count)
system.tol2bus.snoopTraffic                    622944                       # Total snoop traffic (bytes)
system.tol2bus.snoop_fanout::samples           173873                       # Request fanout histogram
system.tol2bus.snoop_fanout::mean            0.225193                       # Request fanout histogram
system.tol2bus.snoop_fanout::stdev           0.631640                       # Request fanout histogram
system.tol2bus.snoop_fanout::underflows             0      0.00%      0.00% # Request fanout histogram
system.tol2bus.snoop_fanout::0                 149137     85.77%     85.77% # Request fanout histogram
system.tol2bus.snoop_fanout::1                  15401      8.86%     94.63% # Request fanout histogram
system.tol2bus.snoop_fanout::2                   4264      2.45%     97.08% # Request fanout histogram
system.tol2bus.snoop_fanout::3                   5058      2.91%     99.99% # Request fanout histogram
system.tol2bus.snoop_fanout::4                     13      0.01%    100.00% # Request fanout histogram
system.tol2bus.snoop_fanout::5                      0      0.00%    100.00% # Request fanout histogram
system.tol2bus.snoop_fanout::6                      0      0.00%    100.00% # Request fanout histogram
system.tol2bus.snoop_fanout::7                      0      0.00%    100.00% # Request fanout histogram
system.tol2bus.snoop_fanout::8                      0      0.00%    100.00% # Request fanout histogram
system.tol2bus.snoop_fanout::overflows              0      0.00%    100.00% # Request fanout histogram
system.tol2bus.snoop_fanout::min_value              0                       # Request fanout histogram
system.tol2bus.snoop_fanout::max_value              4                       # Request fanout histogram
system.tol2bus.snoop_fanout::total             173873                       # Request fanout histogram
system.tol2bus.reqLayer0.occupancy          199095500                       # Layer occupancy (ticks)
system.tol2bus.reqLayer0.utilization              3.2                       # Layer utilization (%)
system.tol2bus.snoopLayer0.occupancy           200974                       # Layer occupancy (ticks)
system.tol2bus.snoopLayer0.utilization            0.0                       # Layer utilization (%)
system.tol2bus.respLayer0.occupancy          16929475                       # Layer occupancy (ticks)
system.tol2bus.respLayer0.utilization             0.3                       # Layer utilization (%)
system.tol2bus.respLayer1.occupancy          21623485                       # Layer occupancy (ticks)
system.tol2bus.respLayer1.utilization             0.3                       # Layer utilization (%)
system.tol2bus.respLayer2.occupancy           7450972                       # Layer occupancy (ticks)
system.tol2bus.respLayer2.utilization             0.1                       # Layer utilization (%)
system.tol2bus.respLayer3.occupancy           8355469                       # Layer occupancy (ticks)
system.tol2bus.respLayer3.utilization             0.1                       # Layer utilization (%)
system.tol2bus.respLayer4.occupancy          50566950                       # Layer occupancy (ticks)
system.tol2bus.respLayer4.utilization             0.8                       # Layer utilization (%)
system.tol2bus.respLayer5.occupancy          22719429                       # Layer occupancy (ticks)
system.tol2bus.respLayer5.utilization             0.4                       # Layer utilization (%)
system.tol2bus.respLayer6.occupancy           7327971                       # Layer occupancy (ticks)
system.tol2bus.respLayer6.utilization             0.1                       # Layer utilization (%)
system.tol2bus.respLayer7.occupancy           4917469                       # Layer occupancy (ticks)
system.tol2bus.respLayer7.utilization             0.1                       # Layer utilization (%)
system.tsunami.backdoor.pwrStateResidencyTicks::UNDEFINED   6204766000                       # Cumulative time (in ticks) in various power states
system.tsunami.cchip.pwrStateResidencyTicks::UNDEFINED   6204766000                       # Cumulative time (in ticks) in various power states
system.tsunami.pchip.pwrStateResidencyTicks::UNDEFINED   6204766000                       # Cumulative time (in ticks) in various power states
system.tsunami.ethernet.pwrStateResidencyTicks::UNDEFINED   6204766000                       # Cumulative time (in ticks) in various power states
system.tsunami.ethernet.descDMAReads                0                       # Number of descriptors the device read w/ DMA
system.tsunami.ethernet.descDMAWrites               0                       # Number of descriptors the device wrote w/ DMA
system.tsunami.ethernet.descDmaReadBytes            0                       # number of descriptor bytes read w/ DMA
system.tsunami.ethernet.descDmaWriteBytes            0                       # number of descriptor bytes write w/ DMA
system.tsunami.ethernet.postedSwi                   0                       # number of software interrupts posted to CPU
system.tsunami.ethernet.coalescedSwi              nan                       # average number of Swi's coalesced into each post
system.tsunami.ethernet.totalSwi                    0                       # total number of Swi written to ISR
system.tsunami.ethernet.postedRxIdle                0                       # number of rxIdle interrupts posted to CPU
system.tsunami.ethernet.coalescedRxIdle           nan                       # average number of RxIdle's coalesced into each post
system.tsunami.ethernet.totalRxIdle                 0                       # total number of RxIdle written to ISR
system.tsunami.ethernet.postedRxOk                  0                       # number of RxOk interrupts posted to CPU
system.tsunami.ethernet.coalescedRxOk             nan                       # average number of RxOk's coalesced into each post
system.tsunami.ethernet.totalRxOk                   0                       # total number of RxOk written to ISR
system.tsunami.ethernet.postedRxDesc                0                       # number of RxDesc interrupts posted to CPU
system.tsunami.ethernet.coalescedRxDesc           nan                       # average number of RxDesc's coalesced into each post
system.tsunami.ethernet.totalRxDesc                 0                       # total number of RxDesc written to ISR
system.tsunami.ethernet.postedTxOk                  0                       # number of TxOk interrupts posted to CPU
system.tsunami.ethernet.coalescedTxOk             nan                       # average number of TxOk's coalesced into each post
system.tsunami.ethernet.totalTxOk                   0                       # total number of TxOk written to ISR
system.tsunami.ethernet.postedTxIdle                0                       # number of TxIdle interrupts posted to CPU
system.tsunami.ethernet.coalescedTxIdle           nan                       # average number of TxIdle's coalesced into each post
system.tsunami.ethernet.totalTxIdle                 0                       # total number of TxIdle written to ISR
system.tsunami.ethernet.postedTxDesc                0                       # number of TxDesc interrupts posted to CPU
system.tsunami.ethernet.coalescedTxDesc           nan                       # average number of TxDesc's coalesced into each post
system.tsunami.ethernet.totalTxDesc                 0                       # total number of TxDesc written to ISR
system.tsunami.ethernet.postedRxOrn                 0                       # number of RxOrn posted to CPU
system.tsunami.ethernet.coalescedRxOrn            nan                       # average number of RxOrn's coalesced into each post
system.tsunami.ethernet.totalRxOrn                  0                       # total number of RxOrn written to ISR
system.tsunami.ethernet.coalescedTotal            nan                       # average number of interrupts coalesced into each post
system.tsunami.ethernet.postedInterrupts            0                       # number of posts to CPU
system.tsunami.ethernet.droppedPackets              0                       # number of packets dropped
system.tsunami.fake_OROM.pwrStateResidencyTicks::UNDEFINED   6204766000                       # Cumulative time (in ticks) in various power states
system.tsunami.fake_ata0.pwrStateResidencyTicks::UNDEFINED   6204766000                       # Cumulative time (in ticks) in various power states
system.tsunami.fake_ata1.pwrStateResidencyTicks::UNDEFINED   6204766000                       # Cumulative time (in ticks) in various power states
system.tsunami.fake_pnp_addr.pwrStateResidencyTicks::UNDEFINED   6204766000                       # Cumulative time (in ticks) in various power states
system.tsunami.fake_pnp_read0.pwrStateResidencyTicks::UNDEFINED   6204766000                       # Cumulative time (in ticks) in various power states
system.tsunami.fake_pnp_read1.pwrStateResidencyTicks::UNDEFINED   6204766000                       # Cumulative time (in ticks) in various power states
system.tsunami.fake_pnp_read2.pwrStateResidencyTicks::UNDEFINED   6204766000                       # Cumulative time (in ticks) in various power states
system.tsunami.fake_pnp_read3.pwrStateResidencyTicks::UNDEFINED   6204766000                       # Cumulative time (in ticks) in various power states
system.tsunami.fake_pnp_read4.pwrStateResidencyTicks::UNDEFINED   6204766000                       # Cumulative time (in ticks) in various power states
system.tsunami.fake_pnp_read5.pwrStateResidencyTicks::UNDEFINED   6204766000                       # Cumulative time (in ticks) in various power states
system.tsunami.fake_pnp_read6.pwrStateResidencyTicks::UNDEFINED   6204766000                       # Cumulative time (in ticks) in various power states
system.tsunami.fake_pnp_read7.pwrStateResidencyTicks::UNDEFINED   6204766000                       # Cumulative time (in ticks) in various power states
system.tsunami.fake_pnp_write.pwrStateResidencyTicks::UNDEFINED   6204766000                       # Cumulative time (in ticks) in various power states
system.tsunami.fake_ppc.pwrStateResidencyTicks::UNDEFINED   6204766000                       # Cumulative time (in ticks) in various power states
system.tsunami.fake_sm_chip.pwrStateResidencyTicks::UNDEFINED   6204766000                       # Cumulative time (in ticks) in various power states
system.tsunami.fake_uart1.pwrStateResidencyTicks::UNDEFINED   6204766000                       # Cumulative time (in ticks) in various power states
system.tsunami.fake_uart2.pwrStateResidencyTicks::UNDEFINED   6204766000                       # Cumulative time (in ticks) in various power states
system.tsunami.fake_uart3.pwrStateResidencyTicks::UNDEFINED   6204766000                       # Cumulative time (in ticks) in various power states
system.tsunami.fake_uart4.pwrStateResidencyTicks::UNDEFINED   6204766000                       # Cumulative time (in ticks) in various power states
system.tsunami.fb.pwrStateResidencyTicks::UNDEFINED   6204766000                       # Cumulative time (in ticks) in various power states
system.tsunami.ide.pwrStateResidencyTicks::UNDEFINED   6204766000                       # Cumulative time (in ticks) in various power states
system.tsunami.io.pwrStateResidencyTicks::UNDEFINED   6204766000                       # Cumulative time (in ticks) in various power states
system.tsunami.uart.pwrStateResidencyTicks::UNDEFINED   6204766000                       # Cumulative time (in ticks) in various power states

---------- End Simulation Statistics   ----------
