
---------- Begin Simulation Statistics ----------
sim_seconds                                  2.509729                       # Number of seconds simulated
sim_ticks                                2509729080500                       # Number of ticks simulated
final_tick                               2509729080500                       # Number of ticks from beginning of simulation (restored from checkpoints and never reset)
sim_freq                                 1000000000000                       # Frequency of simulated ticks
host_inst_rate                                 145109                       # Simulator instruction rate (inst/s)
host_op_rate                                   145109                       # Simulator op (including micro ops) rate (op/s)
host_tick_rate                             3973668056                       # Simulator tick rate (ticks/s)
host_mem_usage                                 744300                       # Number of bytes of host memory used
host_seconds                                   631.59                       # Real time elapsed on the host
sim_insts                                    91649602                       # Number of instructions simulated
sim_ops                                      91649602                       # Number of ops (including micro ops) simulated
system.voltage_domain.voltage                       1                       # Voltage in Volts
system.clk_domain.clock                          1000                       # Clock period in ticks
system.mem_ctrls.pwrStateResidencyTicks::UNDEFINED 2509729080500                       # Cumulative time (in ticks) in various power states
system.mem_ctrls.bytes_read::cpu.inst         1013648                       # Number of bytes read from this memory
system.mem_ctrls.bytes_read::cpu.data        18215648                       # Number of bytes read from this memory
system.mem_ctrls.bytes_read::tsunami.ide         4048                       # Number of bytes read from this memory
system.mem_ctrls.bytes_read::total           19233344                       # Number of bytes read from this memory
system.mem_ctrls.bytes_inst_read::cpu.inst      1013648                       # Number of instructions bytes read from this memory
system.mem_ctrls.bytes_inst_read::total       1013648                       # Number of instructions bytes read from this memory
system.mem_ctrls.bytes_written::writebacks     16386320                       # Number of bytes written to this memory
system.mem_ctrls.bytes_written::total        16386320                       # Number of bytes written to this memory
system.mem_ctrls.num_reads::cpu.inst            63353                       # Number of read requests responded to by this memory
system.mem_ctrls.num_reads::cpu.data          1138478                       # Number of read requests responded to by this memory
system.mem_ctrls.num_reads::tsunami.ide           253                       # Number of read requests responded to by this memory
system.mem_ctrls.num_reads::total             1202084                       # Number of read requests responded to by this memory
system.mem_ctrls.num_writes::writebacks       1024145                       # Number of write requests responded to by this memory
system.mem_ctrls.num_writes::total            1024145                       # Number of write requests responded to by this memory
system.mem_ctrls.bw_read::cpu.inst             403887                       # Total read bandwidth from this memory (bytes/s)
system.mem_ctrls.bw_read::cpu.data            7258014                       # Total read bandwidth from this memory (bytes/s)
system.mem_ctrls.bw_read::tsunami.ide            1613                       # Total read bandwidth from this memory (bytes/s)
system.mem_ctrls.bw_read::total               7663514                       # Total read bandwidth from this memory (bytes/s)
system.mem_ctrls.bw_inst_read::cpu.inst        403887                       # Instruction read bandwidth from this memory (bytes/s)
system.mem_ctrls.bw_inst_read::total           403887                       # Instruction read bandwidth from this memory (bytes/s)
system.mem_ctrls.bw_write::writebacks         6529119                       # Write bandwidth from this memory (bytes/s)
system.mem_ctrls.bw_write::total              6529119                       # Write bandwidth from this memory (bytes/s)
system.mem_ctrls.bw_total::writebacks         6529119                       # Total bandwidth to/from this memory (bytes/s)
system.mem_ctrls.bw_total::cpu.inst            403887                       # Total bandwidth to/from this memory (bytes/s)
system.mem_ctrls.bw_total::cpu.data           7258014                       # Total bandwidth to/from this memory (bytes/s)
system.mem_ctrls.bw_total::tsunami.ide           1613                       # Total bandwidth to/from this memory (bytes/s)
system.mem_ctrls.bw_total::total             14192633                       # Total bandwidth to/from this memory (bytes/s)
system.mem_ctrls.readReqs                     1202084                       # Number of read requests accepted
system.mem_ctrls.writeReqs                    1024145                       # Number of write requests accepted
system.mem_ctrls.readBursts                   1202084                       # Number of DRAM read bursts, including those serviced by the write queue
system.mem_ctrls.writeBursts                  1024145                       # Number of DRAM write bursts, including those merged in the write queue
system.mem_ctrls.bytesReadDRAM               76919552                       # Total number of bytes read from DRAM
system.mem_ctrls.bytesReadWrQ                   13824                       # Total number of bytes read from write queue
system.mem_ctrls.bytesWritten                42323200                       # Total number of bytes written to DRAM
system.mem_ctrls.bytesReadSys                19233344                       # Total read bytes from the system interface side
system.mem_ctrls.bytesWrittenSys             16386320                       # Total written bytes from the system interface side
system.mem_ctrls.servicedByWrQ                    216                       # Number of DRAM read bursts serviced by the write queue
system.mem_ctrls.mergedWrBursts                362825                       # Number of DRAM write bursts merged with an existing one
system.mem_ctrls.neitherReadNorWriteReqs            0                       # Number of requests that are neither read nor write
system.mem_ctrls.perBankRdBursts::0             73862                       # Per bank write bursts
system.mem_ctrls.perBankRdBursts::1             74419                       # Per bank write bursts
system.mem_ctrls.perBankRdBursts::2             73010                       # Per bank write bursts
system.mem_ctrls.perBankRdBursts::3             73662                       # Per bank write bursts
system.mem_ctrls.perBankRdBursts::4             76359                       # Per bank write bursts
system.mem_ctrls.perBankRdBursts::5             77393                       # Per bank write bursts
system.mem_ctrls.perBankRdBursts::6             72967                       # Per bank write bursts
system.mem_ctrls.perBankRdBursts::7             75907                       # Per bank write bursts
system.mem_ctrls.perBankRdBursts::8             76053                       # Per bank write bursts
system.mem_ctrls.perBankRdBursts::9             71866                       # Per bank write bursts
system.mem_ctrls.perBankRdBursts::10            74926                       # Per bank write bursts
system.mem_ctrls.perBankRdBursts::11            79966                       # Per bank write bursts
system.mem_ctrls.perBankRdBursts::12            77943                       # Per bank write bursts
system.mem_ctrls.perBankRdBursts::13            73437                       # Per bank write bursts
system.mem_ctrls.perBankRdBursts::14            74483                       # Per bank write bursts
system.mem_ctrls.perBankRdBursts::15            75615                       # Per bank write bursts
system.mem_ctrls.perBankWrBursts::0             40341                       # Per bank write bursts
system.mem_ctrls.perBankWrBursts::1             42751                       # Per bank write bursts
system.mem_ctrls.perBankWrBursts::2             40762                       # Per bank write bursts
system.mem_ctrls.perBankWrBursts::3             42300                       # Per bank write bursts
system.mem_ctrls.perBankWrBursts::4             42352                       # Per bank write bursts
system.mem_ctrls.perBankWrBursts::5             43828                       # Per bank write bursts
system.mem_ctrls.perBankWrBursts::6             40930                       # Per bank write bursts
system.mem_ctrls.perBankWrBursts::7             41903                       # Per bank write bursts
system.mem_ctrls.perBankWrBursts::8             40360                       # Per bank write bursts
system.mem_ctrls.perBankWrBursts::9             39699                       # Per bank write bursts
system.mem_ctrls.perBankWrBursts::10            40902                       # Per bank write bursts
system.mem_ctrls.perBankWrBursts::11            42582                       # Per bank write bursts
system.mem_ctrls.perBankWrBursts::12            40456                       # Per bank write bursts
system.mem_ctrls.perBankWrBursts::13            39283                       # Per bank write bursts
system.mem_ctrls.perBankWrBursts::14            41278                       # Per bank write bursts
system.mem_ctrls.perBankWrBursts::15            41573                       # Per bank write bursts
system.mem_ctrls.numRdRetry                         0                       # Number of times read queue was full causing retry
system.mem_ctrls.numWrRetry                         0                       # Number of times write queue was full causing retry
system.mem_ctrls.totGap                  2509724842500                       # Total gap between requests
system.mem_ctrls.readPktSize::0                     0                       # Read request sizes (log2)
system.mem_ctrls.readPktSize::1                     0                       # Read request sizes (log2)
system.mem_ctrls.readPktSize::2                     0                       # Read request sizes (log2)
system.mem_ctrls.readPktSize::3                     0                       # Read request sizes (log2)
system.mem_ctrls.readPktSize::4               1202084                       # Read request sizes (log2)
system.mem_ctrls.readPktSize::5                     0                       # Read request sizes (log2)
system.mem_ctrls.readPktSize::6                     0                       # Read request sizes (log2)
system.mem_ctrls.writePktSize::0                    0                       # Write request sizes (log2)
system.mem_ctrls.writePktSize::1                    0                       # Write request sizes (log2)
system.mem_ctrls.writePktSize::2                    0                       # Write request sizes (log2)
system.mem_ctrls.writePktSize::3                    0                       # Write request sizes (log2)
system.mem_ctrls.writePktSize::4              1024145                       # Write request sizes (log2)
system.mem_ctrls.writePktSize::5                    0                       # Write request sizes (log2)
system.mem_ctrls.writePktSize::6                    0                       # Write request sizes (log2)
system.mem_ctrls.rdQLenPdf::0                 1201621                       # What read queue length does an incoming req see
system.mem_ctrls.rdQLenPdf::1                       8                       # What read queue length does an incoming req see
system.mem_ctrls.rdQLenPdf::2                       8                       # What read queue length does an incoming req see
system.mem_ctrls.rdQLenPdf::3                       9                       # What read queue length does an incoming req see
system.mem_ctrls.rdQLenPdf::4                      15                       # What read queue length does an incoming req see
system.mem_ctrls.rdQLenPdf::5                      16                       # What read queue length does an incoming req see
system.mem_ctrls.rdQLenPdf::6                      17                       # What read queue length does an incoming req see
system.mem_ctrls.rdQLenPdf::7                      23                       # What read queue length does an incoming req see
system.mem_ctrls.rdQLenPdf::8                      47                       # What read queue length does an incoming req see
system.mem_ctrls.rdQLenPdf::9                      53                       # What read queue length does an incoming req see
system.mem_ctrls.rdQLenPdf::10                     16                       # What read queue length does an incoming req see
system.mem_ctrls.rdQLenPdf::11                     12                       # What read queue length does an incoming req see
system.mem_ctrls.rdQLenPdf::12                      9                       # What read queue length does an incoming req see
system.mem_ctrls.rdQLenPdf::13                      3                       # What read queue length does an incoming req see
system.mem_ctrls.rdQLenPdf::14                      3                       # What read queue length does an incoming req see
system.mem_ctrls.rdQLenPdf::15                      2                       # What read queue length does an incoming req see
system.mem_ctrls.rdQLenPdf::16                      2                       # What read queue length does an incoming req see
system.mem_ctrls.rdQLenPdf::17                      2                       # What read queue length does an incoming req see
system.mem_ctrls.rdQLenPdf::18                      1                       # What read queue length does an incoming req see
system.mem_ctrls.rdQLenPdf::19                      1                       # What read queue length does an incoming req see
system.mem_ctrls.rdQLenPdf::20                      0                       # What read queue length does an incoming req see
system.mem_ctrls.rdQLenPdf::21                      0                       # What read queue length does an incoming req see
system.mem_ctrls.rdQLenPdf::22                      0                       # What read queue length does an incoming req see
system.mem_ctrls.rdQLenPdf::23                      0                       # What read queue length does an incoming req see
system.mem_ctrls.rdQLenPdf::24                      0                       # What read queue length does an incoming req see
system.mem_ctrls.rdQLenPdf::25                      0                       # What read queue length does an incoming req see
system.mem_ctrls.rdQLenPdf::26                      0                       # What read queue length does an incoming req see
system.mem_ctrls.rdQLenPdf::27                      0                       # What read queue length does an incoming req see
system.mem_ctrls.rdQLenPdf::28                      0                       # What read queue length does an incoming req see
system.mem_ctrls.rdQLenPdf::29                      0                       # What read queue length does an incoming req see
system.mem_ctrls.rdQLenPdf::30                      0                       # What read queue length does an incoming req see
system.mem_ctrls.rdQLenPdf::31                      0                       # What read queue length does an incoming req see
system.mem_ctrls.wrQLenPdf::0                       1                       # What write queue length does an incoming req see
system.mem_ctrls.wrQLenPdf::1                       1                       # What write queue length does an incoming req see
system.mem_ctrls.wrQLenPdf::2                       1                       # What write queue length does an incoming req see
system.mem_ctrls.wrQLenPdf::3                       1                       # What write queue length does an incoming req see
system.mem_ctrls.wrQLenPdf::4                       1                       # What write queue length does an incoming req see
system.mem_ctrls.wrQLenPdf::5                       1                       # What write queue length does an incoming req see
system.mem_ctrls.wrQLenPdf::6                       1                       # What write queue length does an incoming req see
system.mem_ctrls.wrQLenPdf::7                       1                       # What write queue length does an incoming req see
system.mem_ctrls.wrQLenPdf::8                       1                       # What write queue length does an incoming req see
system.mem_ctrls.wrQLenPdf::9                       1                       # What write queue length does an incoming req see
system.mem_ctrls.wrQLenPdf::10                      1                       # What write queue length does an incoming req see
system.mem_ctrls.wrQLenPdf::11                      1                       # What write queue length does an incoming req see
system.mem_ctrls.wrQLenPdf::12                      1                       # What write queue length does an incoming req see
system.mem_ctrls.wrQLenPdf::13                      1                       # What write queue length does an incoming req see
system.mem_ctrls.wrQLenPdf::14                      1                       # What write queue length does an incoming req see
system.mem_ctrls.wrQLenPdf::15                   6965                       # What write queue length does an incoming req see
system.mem_ctrls.wrQLenPdf::16                   9058                       # What write queue length does an incoming req see
system.mem_ctrls.wrQLenPdf::17                  40674                       # What write queue length does an incoming req see
system.mem_ctrls.wrQLenPdf::18                  40375                       # What write queue length does an incoming req see
system.mem_ctrls.wrQLenPdf::19                  40694                       # What write queue length does an incoming req see
system.mem_ctrls.wrQLenPdf::20                  40363                       # What write queue length does an incoming req see
system.mem_ctrls.wrQLenPdf::21                  40185                       # What write queue length does an incoming req see
system.mem_ctrls.wrQLenPdf::22                  39994                       # What write queue length does an incoming req see
system.mem_ctrls.wrQLenPdf::23                  39969                       # What write queue length does an incoming req see
system.mem_ctrls.wrQLenPdf::24                  40024                       # What write queue length does an incoming req see
system.mem_ctrls.wrQLenPdf::25                  40571                       # What write queue length does an incoming req see
system.mem_ctrls.wrQLenPdf::26                  40355                       # What write queue length does an incoming req see
system.mem_ctrls.wrQLenPdf::27                  40171                       # What write queue length does an incoming req see
system.mem_ctrls.wrQLenPdf::28                  40138                       # What write queue length does an incoming req see
system.mem_ctrls.wrQLenPdf::29                  39913                       # What write queue length does an incoming req see
system.mem_ctrls.wrQLenPdf::30                  39916                       # What write queue length does an incoming req see
system.mem_ctrls.wrQLenPdf::31                  39917                       # What write queue length does an incoming req see
system.mem_ctrls.wrQLenPdf::32                  39796                       # What write queue length does an incoming req see
system.mem_ctrls.wrQLenPdf::33                    182                       # What write queue length does an incoming req see
system.mem_ctrls.wrQLenPdf::34                    173                       # What write queue length does an incoming req see
system.mem_ctrls.wrQLenPdf::35                    151                       # What write queue length does an incoming req see
system.mem_ctrls.wrQLenPdf::36                    136                       # What write queue length does an incoming req see
system.mem_ctrls.wrQLenPdf::37                    132                       # What write queue length does an incoming req see
system.mem_ctrls.wrQLenPdf::38                    113                       # What write queue length does an incoming req see
system.mem_ctrls.wrQLenPdf::39                    113                       # What write queue length does an incoming req see
system.mem_ctrls.wrQLenPdf::40                    118                       # What write queue length does an incoming req see
system.mem_ctrls.wrQLenPdf::41                    103                       # What write queue length does an incoming req see
system.mem_ctrls.wrQLenPdf::42                     89                       # What write queue length does an incoming req see
system.mem_ctrls.wrQLenPdf::43                    111                       # What write queue length does an incoming req see
system.mem_ctrls.wrQLenPdf::44                    114                       # What write queue length does an incoming req see
system.mem_ctrls.wrQLenPdf::45                     94                       # What write queue length does an incoming req see
system.mem_ctrls.wrQLenPdf::46                     78                       # What write queue length does an incoming req see
system.mem_ctrls.wrQLenPdf::47                     74                       # What write queue length does an incoming req see
system.mem_ctrls.wrQLenPdf::48                     68                       # What write queue length does an incoming req see
system.mem_ctrls.wrQLenPdf::49                     64                       # What write queue length does an incoming req see
system.mem_ctrls.wrQLenPdf::50                     61                       # What write queue length does an incoming req see
system.mem_ctrls.wrQLenPdf::51                     64                       # What write queue length does an incoming req see
system.mem_ctrls.wrQLenPdf::52                     64                       # What write queue length does an incoming req see
system.mem_ctrls.wrQLenPdf::53                     51                       # What write queue length does an incoming req see
system.mem_ctrls.wrQLenPdf::54                     39                       # What write queue length does an incoming req see
system.mem_ctrls.wrQLenPdf::55                     26                       # What write queue length does an incoming req see
system.mem_ctrls.wrQLenPdf::56                      7                       # What write queue length does an incoming req see
system.mem_ctrls.wrQLenPdf::57                      2                       # What write queue length does an incoming req see
system.mem_ctrls.wrQLenPdf::58                      0                       # What write queue length does an incoming req see
system.mem_ctrls.wrQLenPdf::59                      0                       # What write queue length does an incoming req see
system.mem_ctrls.wrQLenPdf::60                      0                       # What write queue length does an incoming req see
system.mem_ctrls.wrQLenPdf::61                      0                       # What write queue length does an incoming req see
system.mem_ctrls.wrQLenPdf::62                      0                       # What write queue length does an incoming req see
system.mem_ctrls.wrQLenPdf::63                      0                       # What write queue length does an incoming req see
system.mem_ctrls.bytesPerActivate::samples       303844                       # Bytes accessed per row activation
system.mem_ctrls.bytesPerActivate::mean    392.447282                       # Bytes accessed per row activation
system.mem_ctrls.bytesPerActivate::gmean   223.104083                       # Bytes accessed per row activation
system.mem_ctrls.bytesPerActivate::stdev   384.118126                       # Bytes accessed per row activation
system.mem_ctrls.bytesPerActivate::0-127        98531     32.43%     32.43% # Bytes accessed per row activation
system.mem_ctrls.bytesPerActivate::128-255        65976     21.71%     54.14% # Bytes accessed per row activation
system.mem_ctrls.bytesPerActivate::256-383        27748      9.13%     63.27% # Bytes accessed per row activation
system.mem_ctrls.bytesPerActivate::384-511        14826      4.88%     68.15% # Bytes accessed per row activation
system.mem_ctrls.bytesPerActivate::512-639        10697      3.52%     71.67% # Bytes accessed per row activation
system.mem_ctrls.bytesPerActivate::640-767         7724      2.54%     74.22% # Bytes accessed per row activation
system.mem_ctrls.bytesPerActivate::768-895         6693      2.20%     76.42% # Bytes accessed per row activation
system.mem_ctrls.bytesPerActivate::896-1023         5854      1.93%     78.35% # Bytes accessed per row activation
system.mem_ctrls.bytesPerActivate::1024-1151        65795     21.65%    100.00% # Bytes accessed per row activation
system.mem_ctrls.bytesPerActivate::total       303844                       # Bytes accessed per row activation
system.mem_ctrls.rdPerTurnAround::samples        39666                       # Reads before turning the bus around for writes
system.mem_ctrls.rdPerTurnAround::mean      30.299450                       # Reads before turning the bus around for writes
system.mem_ctrls.rdPerTurnAround::stdev    495.490855                       # Reads before turning the bus around for writes
system.mem_ctrls.rdPerTurnAround::0-4095        39663     99.99%     99.99% # Reads before turning the bus around for writes
system.mem_ctrls.rdPerTurnAround::24576-28671            1      0.00%     99.99% # Reads before turning the bus around for writes
system.mem_ctrls.rdPerTurnAround::36864-40959            1      0.00%    100.00% # Reads before turning the bus around for writes
system.mem_ctrls.rdPerTurnAround::81920-86015            1      0.00%    100.00% # Reads before turning the bus around for writes
system.mem_ctrls.rdPerTurnAround::total         39666                       # Reads before turning the bus around for writes
system.mem_ctrls.wrPerTurnAround::samples        39666                       # Writes before turning the bus around for reads
system.mem_ctrls.wrPerTurnAround::mean      16.671709                       # Writes before turning the bus around for reads
system.mem_ctrls.wrPerTurnAround::gmean     16.574614                       # Writes before turning the bus around for reads
system.mem_ctrls.wrPerTurnAround::stdev      2.249927                       # Writes before turning the bus around for reads
system.mem_ctrls.wrPerTurnAround::16-17         32667     82.36%     82.36% # Writes before turning the bus around for reads
system.mem_ctrls.wrPerTurnAround::18-19          5322     13.42%     95.77% # Writes before turning the bus around for reads
system.mem_ctrls.wrPerTurnAround::20-21           497      1.25%     97.03% # Writes before turning the bus around for reads
system.mem_ctrls.wrPerTurnAround::22-23           375      0.95%     97.97% # Writes before turning the bus around for reads
system.mem_ctrls.wrPerTurnAround::24-25           338      0.85%     98.82% # Writes before turning the bus around for reads
system.mem_ctrls.wrPerTurnAround::26-27           278      0.70%     99.52% # Writes before turning the bus around for reads
system.mem_ctrls.wrPerTurnAround::28-29            72      0.18%     99.71% # Writes before turning the bus around for reads
system.mem_ctrls.wrPerTurnAround::30-31            11      0.03%     99.73% # Writes before turning the bus around for reads
system.mem_ctrls.wrPerTurnAround::32-33            12      0.03%     99.76% # Writes before turning the bus around for reads
system.mem_ctrls.wrPerTurnAround::34-35             3      0.01%     99.77% # Writes before turning the bus around for reads
system.mem_ctrls.wrPerTurnAround::36-37             6      0.02%     99.79% # Writes before turning the bus around for reads
system.mem_ctrls.wrPerTurnAround::38-39             8      0.02%     99.81% # Writes before turning the bus around for reads
system.mem_ctrls.wrPerTurnAround::40-41             7      0.02%     99.82% # Writes before turning the bus around for reads
system.mem_ctrls.wrPerTurnAround::42-43             7      0.02%     99.84% # Writes before turning the bus around for reads
system.mem_ctrls.wrPerTurnAround::44-45             7      0.02%     99.86% # Writes before turning the bus around for reads
system.mem_ctrls.wrPerTurnAround::46-47             4      0.01%     99.87% # Writes before turning the bus around for reads
system.mem_ctrls.wrPerTurnAround::48-49             8      0.02%     99.89% # Writes before turning the bus around for reads
system.mem_ctrls.wrPerTurnAround::50-51            11      0.03%     99.92% # Writes before turning the bus around for reads
system.mem_ctrls.wrPerTurnAround::52-53            15      0.04%     99.95% # Writes before turning the bus around for reads
system.mem_ctrls.wrPerTurnAround::54-55            16      0.04%     99.99% # Writes before turning the bus around for reads
system.mem_ctrls.wrPerTurnAround::60-61             1      0.00%    100.00% # Writes before turning the bus around for reads
system.mem_ctrls.wrPerTurnAround::74-75             1      0.00%    100.00% # Writes before turning the bus around for reads
system.mem_ctrls.wrPerTurnAround::total         39666                       # Writes before turning the bus around for reads
system.mem_ctrls.totQLat                  18607915708                       # Total ticks spent queuing
system.mem_ctrls.totMemAccLat             41142940708                       # Total ticks spent from burst creation until serviced by the DRAM
system.mem_ctrls.totBusLat                 6009340000                       # Total ticks spent in databus transfers
system.mem_ctrls.avgQLat                     15482.50                       # Average queueing delay per DRAM burst
system.mem_ctrls.avgBusLat                    5000.00                       # Average bus latency per DRAM burst
system.mem_ctrls.avgMemAccLat                34232.50                       # Average memory access latency per DRAM burst
system.mem_ctrls.avgRdBW                        30.65                       # Average DRAM read bandwidth in MiByte/s
system.mem_ctrls.avgWrBW                        16.86                       # Average achieved write bandwidth in MiByte/s
system.mem_ctrls.avgRdBWSys                      7.66                       # Average system read bandwidth in MiByte/s
system.mem_ctrls.avgWrBWSys                      6.53                       # Average system write bandwidth in MiByte/s
system.mem_ctrls.peakBW                      12800.00                       # Theoretical peak bandwidth in MiByte/s
system.mem_ctrls.busUtil                         0.37                       # Data bus utilization in percentage
system.mem_ctrls.busUtilRead                     0.24                       # Data bus utilization in percentage for reads
system.mem_ctrls.busUtilWrite                    0.13                       # Data bus utilization in percentage for writes
system.mem_ctrls.avgRdQLen                       1.00                       # Average read queue length when enqueuing
system.mem_ctrls.avgWrQLen                      24.41                       # Average write queue length when enqueuing
system.mem_ctrls.readRowHits                  1079773                       # Number of row buffer hits during reads
system.mem_ctrls.writeRowHits                  479551                       # Number of row buffer hits during writes
system.mem_ctrls.readRowHitRate                 89.84                       # Row buffer hit rate for reads
system.mem_ctrls.writeRowHitRate                72.51                       # Row buffer hit rate for writes
system.mem_ctrls.avgGap                    1127343.52                       # Average gap between requests
system.mem_ctrls.pageHitRate                    83.69                       # Row buffer hit rate, read and write combined
system.mem_ctrls_0.actEnergy               1097489400                       # Energy for activate commands per rank (pJ)
system.mem_ctrls_0.preEnergy                583329450                       # Energy for precharge commands per rank (pJ)
system.mem_ctrls_0.readEnergy              4266714060                       # Energy for read commands per rank (pJ)
system.mem_ctrls_0.writeEnergy             1749571740                       # Energy for write commands per rank (pJ)
system.mem_ctrls_0.refreshEnergy         17880492240.000004                       # Energy for refresh commands per rank (pJ)
system.mem_ctrls_0.actBackEnergy          25154499570                       # Energy for active background per rank (pJ)
system.mem_ctrls_0.preBackEnergy           1004272320                       # Energy for precharge background per rank (pJ)
system.mem_ctrls_0.actPowerDownEnergy     36160308090                       # Energy for active power-down per rank (pJ)
system.mem_ctrls_0.prePowerDownEnergy     20895428160                       # Energy for precharge power-down per rank (pJ)
system.mem_ctrls_0.selfRefreshEnergy     559043482260                       # Energy for self refresh per rank (pJ)
system.mem_ctrls_0.totalEnergy           667841485620                       # Total energy per rank (pJ)
system.mem_ctrls_0.averagePower            266.101027                       # Core power per rank (mW)
system.mem_ctrls_0.totalIdleTime         2451934436751                       # Total Idle time Per DRAM Rank
system.mem_ctrls_0.memoryStateTime::IDLE   1704794000                       # Time in different power states
system.mem_ctrls_0.memoryStateTime::REF    7593468000                       # Time in different power states
system.mem_ctrls_0.memoryStateTime::SREF 2318223222750                       # Time in different power states
system.mem_ctrls_0.memoryStateTime::PRE_PDN  54415084500                       # Time in different power states
system.mem_ctrls_0.memoryStateTime::ACT   48493725749                       # Time in different power states
system.mem_ctrls_0.memoryStateTime::ACT_PDN  79298785501                       # Time in different power states
system.mem_ctrls_1.actEnergy               1071956760                       # Energy for activate commands per rank (pJ)
system.mem_ctrls_1.preEnergy                569758530                       # Energy for precharge commands per rank (pJ)
system.mem_ctrls_1.readEnergy              4314623460                       # Energy for read commands per rank (pJ)
system.mem_ctrls_1.writeEnergy             1702414260                       # Energy for write commands per rank (pJ)
system.mem_ctrls_1.refreshEnergy         16194534720.000002                       # Energy for refresh commands per rank (pJ)
system.mem_ctrls_1.actBackEnergy          24823240080                       # Energy for active background per rank (pJ)
system.mem_ctrls_1.preBackEnergy            892814400                       # Energy for precharge background per rank (pJ)
system.mem_ctrls_1.actPowerDownEnergy     32876089500                       # Energy for active power-down per rank (pJ)
system.mem_ctrls_1.prePowerDownEnergy     18256970400                       # Energy for precharge power-down per rank (pJ)
system.mem_ctrls_1.selfRefreshEnergy     562187375160                       # Energy for self refresh per rank (pJ)
system.mem_ctrls_1.totalEnergy           662894427060                       # Total energy per rank (pJ)
system.mem_ctrls_1.averagePower            264.129874                       # Core power per rank (mW)
system.mem_ctrls_1.totalIdleTime         2452956211500                       # Total Idle time Per DRAM Rank
system.mem_ctrls_1.memoryStateTime::IDLE   1467890000                       # Time in different power states
system.mem_ctrls_1.memoryStateTime::REF    6875074000                       # Time in different power states
system.mem_ctrls_1.memoryStateTime::SREF 2333315887250                       # Time in different power states
system.mem_ctrls_1.memoryStateTime::PRE_PDN  47544164000                       # Time in different power states
system.mem_ctrls_1.memoryStateTime::ACT   48429115500                       # Time in different power states
system.mem_ctrls_1.memoryStateTime::ACT_PDN  72096949750                       # Time in different power states
system.pwrStateResidencyTicks::UNDEFINED 2509729080500                       # Cumulative time (in ticks) in various power states
system.bridge.pwrStateResidencyTicks::UNDEFINED 2509729080500                       # Cumulative time (in ticks) in various power states
system.cpu_voltage_domain.voltage                   1                       # Voltage in Volts
system.cpu_clk_domain.clock                       500                       # Clock period in ticks
system.cpu.dtb.fetch_hits                           0                       # ITB hits
system.cpu.dtb.fetch_misses                         0                       # ITB misses
system.cpu.dtb.fetch_acv                            0                       # ITB acv
system.cpu.dtb.fetch_accesses                       0                       # ITB accesses
system.cpu.dtb.read_hits                     16034573                       # DTB read hits
system.cpu.dtb.read_misses                      12434                       # DTB read misses
system.cpu.dtb.read_acv                            98                       # DTB read access violations
system.cpu.dtb.read_accesses                   817021                       # DTB read accesses
system.cpu.dtb.write_hits                     8878662                       # DTB write hits
system.cpu.dtb.write_misses                      1307                       # DTB write misses
system.cpu.dtb.write_acv                          169                       # DTB write access violations
system.cpu.dtb.write_accesses                  324494                       # DTB write accesses
system.cpu.dtb.data_hits                     24913235                       # DTB hits
system.cpu.dtb.data_misses                      13741                       # DTB misses
system.cpu.dtb.data_acv                           267                       # DTB access violations
system.cpu.dtb.data_accesses                  1141515                       # DTB accesses
system.cpu.itb.fetch_hits                     5662676                       # ITB hits
system.cpu.itb.fetch_misses                      6040                       # ITB misses
system.cpu.itb.fetch_acv                            1                       # ITB acv
system.cpu.itb.fetch_accesses                 5668716                       # ITB accesses
system.cpu.itb.read_hits                            0                       # DTB read hits
system.cpu.itb.read_misses                          0                       # DTB read misses
system.cpu.itb.read_acv                             0                       # DTB read access violations
system.cpu.itb.read_accesses                        0                       # DTB read accesses
system.cpu.itb.write_hits                           0                       # DTB write hits
system.cpu.itb.write_misses                         0                       # DTB write misses
system.cpu.itb.write_acv                            0                       # DTB write access violations
system.cpu.itb.write_accesses                       0                       # DTB write accesses
system.cpu.itb.data_hits                            0                       # DTB hits
system.cpu.itb.data_misses                          0                       # DTB misses
system.cpu.itb.data_acv                             0                       # DTB access violations
system.cpu.itb.data_accesses                        0                       # DTB accesses
system.cpu.numPwrStateTransitions               14344                       # Number of power state transitions
system.cpu.pwrStateClkGateDist::samples          7172                       # Distribution of time spent in the clock gated state
system.cpu.pwrStateClkGateDist::mean     306376759.620747                       # Distribution of time spent in the clock gated state
system.cpu.pwrStateClkGateDist::stdev    450238477.321919                       # Distribution of time spent in the clock gated state
system.cpu.pwrStateClkGateDist::1000-5e+10         7172    100.00%    100.00% # Distribution of time spent in the clock gated state
system.cpu.pwrStateClkGateDist::min_value        74500                       # Distribution of time spent in the clock gated state
system.cpu.pwrStateClkGateDist::max_value   2000000000                       # Distribution of time spent in the clock gated state
system.cpu.pwrStateClkGateDist::total            7172                       # Distribution of time spent in the clock gated state
system.cpu.pwrStateResidencyTicks::ON    312394960500                       # Cumulative time (in ticks) in various power states
system.cpu.pwrStateResidencyTicks::CLK_GATED 2197334120000                       # Cumulative time (in ticks) in various power states
system.cpu.numCycles                       5019458161                       # number of cpu cycles simulated
system.cpu.numWorkItemsStarted                      0                       # number of work items this cpu started
system.cpu.numWorkItemsCompleted                    0                       # number of work items this cpu completed
system.cpu.kern.inst.arm                            0                       # number of arm instructions executed
system.cpu.kern.inst.quiesce                     7172                       # number of quiesce instructions executed
system.cpu.kern.callpal::cserve                     1      0.00%      0.00% # number of callpals executed
system.cpu.kern.callpal::wrmces                     1      0.00%      0.00% # number of callpals executed
system.cpu.kern.callpal::wrfen                      1      0.00%      0.00% # number of callpals executed
system.cpu.kern.callpal::wrvptptr                   1      0.00%      0.00% # number of callpals executed
system.cpu.kern.callpal::swpctx                  4530      2.11%      2.11% # number of callpals executed
system.cpu.kern.callpal::tbi                       65      0.03%      2.14% # number of callpals executed
system.cpu.kern.callpal::wrent                      7      0.00%      2.15% # number of callpals executed
system.cpu.kern.callpal::swpipl                197166     91.89%     94.03% # number of callpals executed
system.cpu.kern.callpal::rdps                    5873      2.74%     96.77% # number of callpals executed
system.cpu.kern.callpal::wrkgp                      1      0.00%     96.77% # number of callpals executed
system.cpu.kern.callpal::wrusp                      8      0.00%     96.78% # number of callpals executed
system.cpu.kern.callpal::rdusp                     10      0.00%     96.78% # number of callpals executed
system.cpu.kern.callpal::whami                      2      0.00%     96.78% # number of callpals executed
system.cpu.kern.callpal::rti                     6114      2.85%     99.63% # number of callpals executed
system.cpu.kern.callpal::callsys                  559      0.26%     99.89% # number of callpals executed
system.cpu.kern.callpal::imb                      235      0.11%    100.00% # number of callpals executed
system.cpu.kern.callpal::total                 214574                       # number of callpals executed
system.cpu.kern.inst.hwrei                     237255                       # number of hwrei instructions executed
system.cpu.kern.mode_switch::kernel              6802                       # number of protection mode switches
system.cpu.kern.mode_switch::user                1963                       # number of protection mode switches
system.cpu.kern.mode_switch::idle                2348                       # number of protection mode switches
system.cpu.kern.mode_good::kernel                2044                      
system.cpu.kern.mode_good::user                  1963                      
system.cpu.kern.mode_good::idle                    81                      
system.cpu.kern.mode_switch_good::kernel     0.300500                       # fraction of useful protection mode switches
system.cpu.kern.mode_switch_good::user              1                       # fraction of useful protection mode switches
system.cpu.kern.mode_switch_good::idle       0.034497                       # fraction of useful protection mode switches
system.cpu.kern.mode_switch_good::total      0.367857                       # fraction of useful protection mode switches
system.cpu.kern.mode_ticks::kernel       221892423500      8.84%      8.84% # number of ticks spent at the given mode
system.cpu.kern.mode_ticks::user           9387106000      0.37%      9.22% # number of ticks spent at the given mode
system.cpu.kern.mode_ticks::idle         2278448281000     90.78%    100.00% # number of ticks spent at the given mode
system.cpu.kern.swap_context                     4531                       # number of times the context was actually changed
system.cpu.kern.ipl_count::0                    82672     40.15%     40.15% # number of times we switched to this ipl
system.cpu.kern.ipl_count::21                     117      0.06%     40.21% # number of times we switched to this ipl
system.cpu.kern.ipl_count::22                    2513      1.22%     41.43% # number of times we switched to this ipl
system.cpu.kern.ipl_count::31                  120609     58.57%    100.00% # number of times we switched to this ipl
system.cpu.kern.ipl_count::total               205911                       # number of times we switched to this ipl
system.cpu.kern.ipl_good::0                     81135     49.20%     49.20% # number of times we switched to this ipl from a different ipl
system.cpu.kern.ipl_good::21                      117      0.07%     49.27% # number of times we switched to this ipl from a different ipl
system.cpu.kern.ipl_good::22                     2513      1.52%     50.80% # number of times we switched to this ipl from a different ipl
system.cpu.kern.ipl_good::31                    81135     49.20%    100.00% # number of times we switched to this ipl from a different ipl
system.cpu.kern.ipl_good::total                164900                       # number of times we switched to this ipl from a different ipl
system.cpu.kern.ipl_ticks::0             2397053701000     95.51%     95.51% # number of cycles we spent at this ipl
system.cpu.kern.ipl_ticks::21               110442500      0.00%     95.51% # number of cycles we spent at this ipl
system.cpu.kern.ipl_ticks::22              1194949000      0.05%     95.56% # number of cycles we spent at this ipl
system.cpu.kern.ipl_ticks::31            111368720000      4.44%    100.00% # number of cycles we spent at this ipl
system.cpu.kern.ipl_ticks::total         2509727812500                       # number of cycles we spent at this ipl
system.cpu.kern.ipl_used::0                  0.981408                       # fraction of swpipl calls that actually changed the ipl
system.cpu.kern.ipl_used::21                        1                       # fraction of swpipl calls that actually changed the ipl
system.cpu.kern.ipl_used::22                        1                       # fraction of swpipl calls that actually changed the ipl
system.cpu.kern.ipl_used::31                 0.672711                       # fraction of swpipl calls that actually changed the ipl
system.cpu.kern.ipl_used::total              0.800831                       # fraction of swpipl calls that actually changed the ipl
system.cpu.committedInsts                    91649602                       # Number of instructions committed
system.cpu.committedOps                      91649602                       # Number of ops (including micro ops) committed
system.cpu.num_int_alu_accesses              88649235                       # Number of integer alu accesses
system.cpu.num_fp_alu_accesses                 427792                       # Number of float alu accesses
system.cpu.num_vec_alu_accesses                     0                       # Number of vector alu accesses
system.cpu.num_func_calls                     2915756                       # number of times a function call or return occured
system.cpu.num_conditional_control_insts     11621427                       # number of instructions that are conditional controls
system.cpu.num_int_insts                     88649235                       # number of integer instructions
system.cpu.num_fp_insts                        427792                       # number of float instructions
system.cpu.num_vec_insts                            0                       # number of vector instructions
system.cpu.num_int_register_reads           121096665                       # number of times the integer registers were read
system.cpu.num_int_register_writes           66940138                       # number of times the integer registers were written
system.cpu.num_fp_register_reads               178511                       # number of times the floating registers were read
system.cpu.num_fp_register_writes              181527                       # number of times the floating registers were written
system.cpu.num_vec_register_reads                   0                       # number of times the vector registers were read
system.cpu.num_vec_register_writes                  0                       # number of times the vector registers were written
system.cpu.num_mem_refs                      24972289                       # number of memory refs
system.cpu.num_load_insts                    16076046                       # Number of load instructions
system.cpu.num_store_insts                    8896243                       # Number of store instructions
system.cpu.num_idle_cycles               4394668239.998249                       # Number of idle cycles
system.cpu.num_busy_cycles               624789921.001751                       # Number of busy cycles
system.cpu.not_idle_fraction                 0.124474                       # Percentage of non-idle cycles
system.cpu.idle_fraction                     0.875526                       # Percentage of idle cycles
system.cpu.Branches                          15150592                       # Number of branches fetched
system.cpu.op_class::No_OpClass               1594893      1.74%      1.74% # Class of executed instruction
system.cpu.op_class::IntAlu                  63175568     68.92%     70.66% # Class of executed instruction
system.cpu.op_class::IntMult                   186164      0.20%     70.86% # Class of executed instruction
system.cpu.op_class::IntDiv                         0      0.00%     70.86% # Class of executed instruction
system.cpu.op_class::FloatAdd                  117466      0.13%     70.99% # Class of executed instruction
system.cpu.op_class::FloatCmp                       0      0.00%     70.99% # Class of executed instruction
system.cpu.op_class::FloatCvt                       0      0.00%     70.99% # Class of executed instruction
system.cpu.op_class::FloatMult                      0      0.00%     70.99% # Class of executed instruction
system.cpu.op_class::FloatMultAcc                   0      0.00%     70.99% # Class of executed instruction
system.cpu.op_class::FloatDiv                    4179      0.00%     71.00% # Class of executed instruction
system.cpu.op_class::FloatMisc                      0      0.00%     71.00% # Class of executed instruction
system.cpu.op_class::FloatSqrt                      0      0.00%     71.00% # Class of executed instruction
system.cpu.op_class::SimdAdd                        0      0.00%     71.00% # Class of executed instruction
system.cpu.op_class::SimdAddAcc                     0      0.00%     71.00% # Class of executed instruction
system.cpu.op_class::SimdAlu                        0      0.00%     71.00% # Class of executed instruction
system.cpu.op_class::SimdCmp                        0      0.00%     71.00% # Class of executed instruction
system.cpu.op_class::SimdCvt                        0      0.00%     71.00% # Class of executed instruction
system.cpu.op_class::SimdMisc                       0      0.00%     71.00% # Class of executed instruction
system.cpu.op_class::SimdMult                       0      0.00%     71.00% # Class of executed instruction
system.cpu.op_class::SimdMultAcc                    0      0.00%     71.00% # Class of executed instruction
system.cpu.op_class::SimdShift                      0      0.00%     71.00% # Class of executed instruction
system.cpu.op_class::SimdShiftAcc                   0      0.00%     71.00% # Class of executed instruction
system.cpu.op_class::SimdSqrt                       0      0.00%     71.00% # Class of executed instruction
system.cpu.op_class::SimdFloatAdd                   0      0.00%     71.00% # Class of executed instruction
system.cpu.op_class::SimdFloatAlu                   0      0.00%     71.00% # Class of executed instruction
system.cpu.op_class::SimdFloatCmp                   0      0.00%     71.00% # Class of executed instruction
system.cpu.op_class::SimdFloatCvt                   0      0.00%     71.00% # Class of executed instruction
system.cpu.op_class::SimdFloatDiv                   0      0.00%     71.00% # Class of executed instruction
system.cpu.op_class::SimdFloatMisc                  0      0.00%     71.00% # Class of executed instruction
system.cpu.op_class::SimdFloatMult                  0      0.00%     71.00% # Class of executed instruction
system.cpu.op_class::SimdFloatMultAcc               0      0.00%     71.00% # Class of executed instruction
system.cpu.op_class::SimdFloatSqrt                  0      0.00%     71.00% # Class of executed instruction
system.cpu.op_class::MemRead                 16375852     17.87%     88.86% # Class of executed instruction
system.cpu.op_class::MemWrite                 8820985      9.62%     98.49% # Class of executed instruction
system.cpu.op_class::FloatMemRead              156675      0.17%     98.66% # Class of executed instruction
system.cpu.op_class::FloatMemWrite             149472      0.16%     98.82% # Class of executed instruction
system.cpu.op_class::IprAccess                1082356      1.18%    100.00% # Class of executed instruction
system.cpu.op_class::InstPrefetch                   0      0.00%    100.00% # Class of executed instruction
system.cpu.op_class::total                   91663610                       # Class of executed instruction
system.cpu.dcache.tags.pwrStateResidencyTicks::UNDEFINED 2509729080500                       # Cumulative time (in ticks) in various power states
system.cpu.dcache.tags.replacements           4406907                       # number of replacements
system.cpu.dcache.tags.tagsinuse          2047.814345                       # Cycle average of tags in use
system.cpu.dcache.tags.total_refs            20520773                       # Total number of references to valid blocks.
system.cpu.dcache.tags.sampled_refs           4406907                       # Sample count of references to valid blocks.
system.cpu.dcache.tags.avg_refs              4.656502                       # Average number of references to valid blocks.
system.cpu.dcache.tags.warmup_cycle         265708500                       # Cycle when the warmup percentage was hit.
system.cpu.dcache.tags.occ_blocks::cpu.data  2047.814345                       # Average occupied blocks per requestor
system.cpu.dcache.tags.occ_percent::cpu.data     0.999909                       # Average percentage of cache occupancy
system.cpu.dcache.tags.occ_percent::total     0.999909                       # Average percentage of cache occupancy
system.cpu.dcache.tags.occ_task_id_blocks::1024         2048                       # Occupied blocks per task id
system.cpu.dcache.tags.age_task_id_blocks_1024::0          137                       # Occupied blocks per task id
system.cpu.dcache.tags.age_task_id_blocks_1024::1          917                       # Occupied blocks per task id
system.cpu.dcache.tags.age_task_id_blocks_1024::2          994                       # Occupied blocks per task id
system.cpu.dcache.tags.occ_task_id_percent::1024            1                       # Percentage of cache occupancy per task id
system.cpu.dcache.tags.tag_accesses          29344169                       # Number of tag accesses
system.cpu.dcache.tags.data_accesses         29344169                       # Number of data accesses
system.cpu.dcache.pwrStateResidencyTicks::UNDEFINED 2509729080500                       # Cumulative time (in ticks) in various power states
system.cpu.dcache.ReadReq_hits::cpu.data     12928707                       # number of ReadReq hits
system.cpu.dcache.ReadReq_hits::total        12928707                       # number of ReadReq hits
system.cpu.dcache.WriteReq_hits::cpu.data      7000801                       # number of WriteReq hits
system.cpu.dcache.WriteReq_hits::total        7000801                       # number of WriteReq hits
system.cpu.dcache.LoadLockedReq_hits::cpu.data       280057                       # number of LoadLockedReq hits
system.cpu.dcache.LoadLockedReq_hits::total       280057                       # number of LoadLockedReq hits
system.cpu.dcache.StoreCondReq_hits::cpu.data       315678                       # number of StoreCondReq hits
system.cpu.dcache.StoreCondReq_hits::total       315678                       # number of StoreCondReq hits
system.cpu.dcache.demand_hits::cpu.data      19929508                       # number of demand (read+write) hits
system.cpu.dcache.demand_hits::total         19929508                       # number of demand (read+write) hits
system.cpu.dcache.overall_hits::cpu.data     19929508                       # number of overall hits
system.cpu.dcache.overall_hits::total        19929508                       # number of overall hits
system.cpu.dcache.ReadReq_misses::cpu.data      2810981                       # number of ReadReq misses
system.cpu.dcache.ReadReq_misses::total       2810981                       # number of ReadReq misses
system.cpu.dcache.WriteReq_misses::cpu.data      1561796                       # number of WriteReq misses
system.cpu.dcache.WriteReq_misses::total      1561796                       # number of WriteReq misses
system.cpu.dcache.LoadLockedReq_misses::cpu.data        36713                       # number of LoadLockedReq misses
system.cpu.dcache.LoadLockedReq_misses::total        36713                       # number of LoadLockedReq misses
system.cpu.dcache.demand_misses::cpu.data      4372777                       # number of demand (read+write) misses
system.cpu.dcache.demand_misses::total        4372777                       # number of demand (read+write) misses
system.cpu.dcache.overall_misses::cpu.data      4372777                       # number of overall misses
system.cpu.dcache.overall_misses::total       4372777                       # number of overall misses
system.cpu.dcache.ReadReq_miss_latency::cpu.data  63511311500                       # number of ReadReq miss cycles
system.cpu.dcache.ReadReq_miss_latency::total  63511311500                       # number of ReadReq miss cycles
system.cpu.dcache.WriteReq_miss_latency::cpu.data  77874284500                       # number of WriteReq miss cycles
system.cpu.dcache.WriteReq_miss_latency::total  77874284500                       # number of WriteReq miss cycles
system.cpu.dcache.LoadLockedReq_miss_latency::cpu.data    542225000                       # number of LoadLockedReq miss cycles
system.cpu.dcache.LoadLockedReq_miss_latency::total    542225000                       # number of LoadLockedReq miss cycles
system.cpu.dcache.demand_miss_latency::cpu.data 141385596000                       # number of demand (read+write) miss cycles
system.cpu.dcache.demand_miss_latency::total 141385596000                       # number of demand (read+write) miss cycles
system.cpu.dcache.overall_miss_latency::cpu.data 141385596000                       # number of overall miss cycles
system.cpu.dcache.overall_miss_latency::total 141385596000                       # number of overall miss cycles
system.cpu.dcache.ReadReq_accesses::cpu.data     15739688                       # number of ReadReq accesses(hits+misses)
system.cpu.dcache.ReadReq_accesses::total     15739688                       # number of ReadReq accesses(hits+misses)
system.cpu.dcache.WriteReq_accesses::cpu.data      8562597                       # number of WriteReq accesses(hits+misses)
system.cpu.dcache.WriteReq_accesses::total      8562597                       # number of WriteReq accesses(hits+misses)
system.cpu.dcache.LoadLockedReq_accesses::cpu.data       316770                       # number of LoadLockedReq accesses(hits+misses)
system.cpu.dcache.LoadLockedReq_accesses::total       316770                       # number of LoadLockedReq accesses(hits+misses)
system.cpu.dcache.StoreCondReq_accesses::cpu.data       315678                       # number of StoreCondReq accesses(hits+misses)
system.cpu.dcache.StoreCondReq_accesses::total       315678                       # number of StoreCondReq accesses(hits+misses)
system.cpu.dcache.demand_accesses::cpu.data     24302285                       # number of demand (read+write) accesses
system.cpu.dcache.demand_accesses::total     24302285                       # number of demand (read+write) accesses
system.cpu.dcache.overall_accesses::cpu.data     24302285                       # number of overall (read+write) accesses
system.cpu.dcache.overall_accesses::total     24302285                       # number of overall (read+write) accesses
system.cpu.dcache.ReadReq_miss_rate::cpu.data     0.178592                       # miss rate for ReadReq accesses
system.cpu.dcache.ReadReq_miss_rate::total     0.178592                       # miss rate for ReadReq accesses
system.cpu.dcache.WriteReq_miss_rate::cpu.data     0.182397                       # miss rate for WriteReq accesses
system.cpu.dcache.WriteReq_miss_rate::total     0.182397                       # miss rate for WriteReq accesses
system.cpu.dcache.LoadLockedReq_miss_rate::cpu.data     0.115898                       # miss rate for LoadLockedReq accesses
system.cpu.dcache.LoadLockedReq_miss_rate::total     0.115898                       # miss rate for LoadLockedReq accesses
system.cpu.dcache.demand_miss_rate::cpu.data     0.179933                       # miss rate for demand accesses
system.cpu.dcache.demand_miss_rate::total     0.179933                       # miss rate for demand accesses
system.cpu.dcache.overall_miss_rate::cpu.data     0.179933                       # miss rate for overall accesses
system.cpu.dcache.overall_miss_rate::total     0.179933                       # miss rate for overall accesses
system.cpu.dcache.ReadReq_avg_miss_latency::cpu.data 22594.002414                       # average ReadReq miss latency
system.cpu.dcache.ReadReq_avg_miss_latency::total 22594.002414                       # average ReadReq miss latency
system.cpu.dcache.WriteReq_avg_miss_latency::cpu.data 49862.007906                       # average WriteReq miss latency
system.cpu.dcache.WriteReq_avg_miss_latency::total 49862.007906                       # average WriteReq miss latency
system.cpu.dcache.LoadLockedReq_avg_miss_latency::cpu.data 14769.291532                       # average LoadLockedReq miss latency
system.cpu.dcache.LoadLockedReq_avg_miss_latency::total 14769.291532                       # average LoadLockedReq miss latency
system.cpu.dcache.demand_avg_miss_latency::cpu.data 32333.136586                       # average overall miss latency
system.cpu.dcache.demand_avg_miss_latency::total 32333.136586                       # average overall miss latency
system.cpu.dcache.overall_avg_miss_latency::cpu.data 32333.136586                       # average overall miss latency
system.cpu.dcache.overall_avg_miss_latency::total 32333.136586                       # average overall miss latency
system.cpu.dcache.blocked_cycles::no_mshrs            0                       # number of cycles access was blocked
system.cpu.dcache.blocked_cycles::no_targets            0                       # number of cycles access was blocked
system.cpu.dcache.blocked::no_mshrs                 0                       # number of cycles access was blocked
system.cpu.dcache.blocked::no_targets               0                       # number of cycles access was blocked
system.cpu.dcache.avg_blocked_cycles::no_mshrs          nan                       # average number of cycles each access was blocked
system.cpu.dcache.avg_blocked_cycles::no_targets          nan                       # average number of cycles each access was blocked
system.cpu.dcache.writebacks::writebacks      3764085                       # number of writebacks
system.cpu.dcache.writebacks::total           3764085                       # number of writebacks
system.cpu.dcache.ReadReq_mshr_misses::cpu.data      2810981                       # number of ReadReq MSHR misses
system.cpu.dcache.ReadReq_mshr_misses::total      2810981                       # number of ReadReq MSHR misses
system.cpu.dcache.WriteReq_mshr_misses::cpu.data      1561796                       # number of WriteReq MSHR misses
system.cpu.dcache.WriteReq_mshr_misses::total      1561796                       # number of WriteReq MSHR misses
system.cpu.dcache.LoadLockedReq_mshr_misses::cpu.data        36713                       # number of LoadLockedReq MSHR misses
system.cpu.dcache.LoadLockedReq_mshr_misses::total        36713                       # number of LoadLockedReq MSHR misses
system.cpu.dcache.demand_mshr_misses::cpu.data      4372777                       # number of demand (read+write) MSHR misses
system.cpu.dcache.demand_mshr_misses::total      4372777                       # number of demand (read+write) MSHR misses
system.cpu.dcache.overall_mshr_misses::cpu.data      4372777                       # number of overall MSHR misses
system.cpu.dcache.overall_mshr_misses::total      4372777                       # number of overall MSHR misses
system.cpu.dcache.ReadReq_mshr_uncacheable::cpu.data         7056                       # number of ReadReq MSHR uncacheable
system.cpu.dcache.ReadReq_mshr_uncacheable::total         7056                       # number of ReadReq MSHR uncacheable
system.cpu.dcache.WriteReq_mshr_uncacheable::cpu.data        10374                       # number of WriteReq MSHR uncacheable
system.cpu.dcache.WriteReq_mshr_uncacheable::total        10374                       # number of WriteReq MSHR uncacheable
system.cpu.dcache.overall_mshr_uncacheable_misses::cpu.data        17430                       # number of overall MSHR uncacheable misses
system.cpu.dcache.overall_mshr_uncacheable_misses::total        17430                       # number of overall MSHR uncacheable misses
system.cpu.dcache.ReadReq_mshr_miss_latency::cpu.data  60700330500                       # number of ReadReq MSHR miss cycles
system.cpu.dcache.ReadReq_mshr_miss_latency::total  60700330500                       # number of ReadReq MSHR miss cycles
system.cpu.dcache.WriteReq_mshr_miss_latency::cpu.data  76312488500                       # number of WriteReq MSHR miss cycles
system.cpu.dcache.WriteReq_mshr_miss_latency::total  76312488500                       # number of WriteReq MSHR miss cycles
system.cpu.dcache.LoadLockedReq_mshr_miss_latency::cpu.data    505512000                       # number of LoadLockedReq MSHR miss cycles
system.cpu.dcache.LoadLockedReq_mshr_miss_latency::total    505512000                       # number of LoadLockedReq MSHR miss cycles
system.cpu.dcache.demand_mshr_miss_latency::cpu.data 137012819000                       # number of demand (read+write) MSHR miss cycles
system.cpu.dcache.demand_mshr_miss_latency::total 137012819000                       # number of demand (read+write) MSHR miss cycles
system.cpu.dcache.overall_mshr_miss_latency::cpu.data 137012819000                       # number of overall MSHR miss cycles
system.cpu.dcache.overall_mshr_miss_latency::total 137012819000                       # number of overall MSHR miss cycles
system.cpu.dcache.ReadReq_mshr_uncacheable_latency::cpu.data   1566240000                       # number of ReadReq MSHR uncacheable cycles
system.cpu.dcache.ReadReq_mshr_uncacheable_latency::total   1566240000                       # number of ReadReq MSHR uncacheable cycles
system.cpu.dcache.overall_mshr_uncacheable_latency::cpu.data   1566240000                       # number of overall MSHR uncacheable cycles
system.cpu.dcache.overall_mshr_uncacheable_latency::total   1566240000                       # number of overall MSHR uncacheable cycles
system.cpu.dcache.ReadReq_mshr_miss_rate::cpu.data     0.178592                       # mshr miss rate for ReadReq accesses
system.cpu.dcache.ReadReq_mshr_miss_rate::total     0.178592                       # mshr miss rate for ReadReq accesses
system.cpu.dcache.WriteReq_mshr_miss_rate::cpu.data     0.182397                       # mshr miss rate for WriteReq accesses
system.cpu.dcache.WriteReq_mshr_miss_rate::total     0.182397                       # mshr miss rate for WriteReq accesses
system.cpu.dcache.LoadLockedReq_mshr_miss_rate::cpu.data     0.115898                       # mshr miss rate for LoadLockedReq accesses
system.cpu.dcache.LoadLockedReq_mshr_miss_rate::total     0.115898                       # mshr miss rate for LoadLockedReq accesses
system.cpu.dcache.demand_mshr_miss_rate::cpu.data     0.179933                       # mshr miss rate for demand accesses
system.cpu.dcache.demand_mshr_miss_rate::total     0.179933                       # mshr miss rate for demand accesses
system.cpu.dcache.overall_mshr_miss_rate::cpu.data     0.179933                       # mshr miss rate for overall accesses
system.cpu.dcache.overall_mshr_miss_rate::total     0.179933                       # mshr miss rate for overall accesses
system.cpu.dcache.ReadReq_avg_mshr_miss_latency::cpu.data 21594.002414                       # average ReadReq mshr miss latency
system.cpu.dcache.ReadReq_avg_mshr_miss_latency::total 21594.002414                       # average ReadReq mshr miss latency
system.cpu.dcache.WriteReq_avg_mshr_miss_latency::cpu.data 48862.007906                       # average WriteReq mshr miss latency
system.cpu.dcache.WriteReq_avg_mshr_miss_latency::total 48862.007906                       # average WriteReq mshr miss latency
system.cpu.dcache.LoadLockedReq_avg_mshr_miss_latency::cpu.data 13769.291532                       # average LoadLockedReq mshr miss latency
system.cpu.dcache.LoadLockedReq_avg_mshr_miss_latency::total 13769.291532                       # average LoadLockedReq mshr miss latency
system.cpu.dcache.demand_avg_mshr_miss_latency::cpu.data 31333.136586                       # average overall mshr miss latency
system.cpu.dcache.demand_avg_mshr_miss_latency::total 31333.136586                       # average overall mshr miss latency
system.cpu.dcache.overall_avg_mshr_miss_latency::cpu.data 31333.136586                       # average overall mshr miss latency
system.cpu.dcache.overall_avg_mshr_miss_latency::total 31333.136586                       # average overall mshr miss latency
system.cpu.dcache.ReadReq_avg_mshr_uncacheable_latency::cpu.data 221972.789116                       # average ReadReq mshr uncacheable latency
system.cpu.dcache.ReadReq_avg_mshr_uncacheable_latency::total 221972.789116                       # average ReadReq mshr uncacheable latency
system.cpu.dcache.overall_avg_mshr_uncacheable_latency::cpu.data 89858.864028                       # average overall mshr uncacheable latency
system.cpu.dcache.overall_avg_mshr_uncacheable_latency::total 89858.864028                       # average overall mshr uncacheable latency
system.cpu.icache.tags.pwrStateResidencyTicks::UNDEFINED 2509729080500                       # Cumulative time (in ticks) in various power states
system.cpu.icache.tags.replacements           4112253                       # number of replacements
system.cpu.icache.tags.tagsinuse          1021.137850                       # Cycle average of tags in use
system.cpu.icache.tags.total_refs            87465216                       # Total number of references to valid blocks.
system.cpu.icache.tags.sampled_refs           4112253                       # Sample count of references to valid blocks.
system.cpu.icache.tags.avg_refs             21.269415                       # Average number of references to valid blocks.
system.cpu.icache.tags.warmup_cycle       91414472500                       # Cycle when the warmup percentage was hit.
system.cpu.icache.tags.occ_blocks::cpu.inst  1021.137850                       # Average occupied blocks per requestor
system.cpu.icache.tags.occ_percent::cpu.inst     0.997205                       # Average percentage of cache occupancy
system.cpu.icache.tags.occ_percent::total     0.997205                       # Average percentage of cache occupancy
system.cpu.icache.tags.occ_task_id_blocks::1024         1023                       # Occupied blocks per task id
system.cpu.icache.tags.age_task_id_blocks_1024::0          291                       # Occupied blocks per task id
system.cpu.icache.tags.age_task_id_blocks_1024::1           34                       # Occupied blocks per task id
system.cpu.icache.tags.age_task_id_blocks_1024::2          266                       # Occupied blocks per task id
system.cpu.icache.tags.age_task_id_blocks_1024::3          432                       # Occupied blocks per task id
system.cpu.icache.tags.occ_task_id_percent::1024     0.999023                       # Percentage of cache occupancy per task id
system.cpu.icache.tags.tag_accesses         187440714                       # Number of tag accesses
system.cpu.icache.tags.data_accesses        187440714                       # Number of data accesses
system.cpu.icache.pwrStateResidencyTicks::UNDEFINED 2509729080500                       # Cumulative time (in ticks) in various power states
system.cpu.icache.ReadReq_hits::cpu.inst     87550119                       # number of ReadReq hits
system.cpu.icache.ReadReq_hits::total        87550119                       # number of ReadReq hits
system.cpu.icache.demand_hits::cpu.inst      87550119                       # number of demand (read+write) hits
system.cpu.icache.demand_hits::total         87550119                       # number of demand (read+write) hits
system.cpu.icache.overall_hits::cpu.inst     87550119                       # number of overall hits
system.cpu.icache.overall_hits::total        87550119                       # number of overall hits
system.cpu.icache.ReadReq_misses::cpu.inst      4113492                       # number of ReadReq misses
system.cpu.icache.ReadReq_misses::total       4113492                       # number of ReadReq misses
system.cpu.icache.demand_misses::cpu.inst      4113492                       # number of demand (read+write) misses
system.cpu.icache.demand_misses::total        4113492                       # number of demand (read+write) misses
system.cpu.icache.overall_misses::cpu.inst      4113492                       # number of overall misses
system.cpu.icache.overall_misses::total       4113492                       # number of overall misses
system.cpu.icache.ReadReq_miss_latency::cpu.inst  58430601000                       # number of ReadReq miss cycles
system.cpu.icache.ReadReq_miss_latency::total  58430601000                       # number of ReadReq miss cycles
system.cpu.icache.demand_miss_latency::cpu.inst  58430601000                       # number of demand (read+write) miss cycles
system.cpu.icache.demand_miss_latency::total  58430601000                       # number of demand (read+write) miss cycles
system.cpu.icache.overall_miss_latency::cpu.inst  58430601000                       # number of overall miss cycles
system.cpu.icache.overall_miss_latency::total  58430601000                       # number of overall miss cycles
system.cpu.icache.ReadReq_accesses::cpu.inst     91663611                       # number of ReadReq accesses(hits+misses)
system.cpu.icache.ReadReq_accesses::total     91663611                       # number of ReadReq accesses(hits+misses)
system.cpu.icache.demand_accesses::cpu.inst     91663611                       # number of demand (read+write) accesses
system.cpu.icache.demand_accesses::total     91663611                       # number of demand (read+write) accesses
system.cpu.icache.overall_accesses::cpu.inst     91663611                       # number of overall (read+write) accesses
system.cpu.icache.overall_accesses::total     91663611                       # number of overall (read+write) accesses
system.cpu.icache.ReadReq_miss_rate::cpu.inst     0.044876                       # miss rate for ReadReq accesses
system.cpu.icache.ReadReq_miss_rate::total     0.044876                       # miss rate for ReadReq accesses
system.cpu.icache.demand_miss_rate::cpu.inst     0.044876                       # miss rate for demand accesses
system.cpu.icache.demand_miss_rate::total     0.044876                       # miss rate for demand accesses
system.cpu.icache.overall_miss_rate::cpu.inst     0.044876                       # miss rate for overall accesses
system.cpu.icache.overall_miss_rate::total     0.044876                       # miss rate for overall accesses
system.cpu.icache.ReadReq_avg_miss_latency::cpu.inst 14204.622496                       # average ReadReq miss latency
system.cpu.icache.ReadReq_avg_miss_latency::total 14204.622496                       # average ReadReq miss latency
system.cpu.icache.demand_avg_miss_latency::cpu.inst 14204.622496                       # average overall miss latency
system.cpu.icache.demand_avg_miss_latency::total 14204.622496                       # average overall miss latency
system.cpu.icache.overall_avg_miss_latency::cpu.inst 14204.622496                       # average overall miss latency
system.cpu.icache.overall_avg_miss_latency::total 14204.622496                       # average overall miss latency
system.cpu.icache.blocked_cycles::no_mshrs            0                       # number of cycles access was blocked
system.cpu.icache.blocked_cycles::no_targets            0                       # number of cycles access was blocked
system.cpu.icache.blocked::no_mshrs                 0                       # number of cycles access was blocked
system.cpu.icache.blocked::no_targets               0                       # number of cycles access was blocked
system.cpu.icache.avg_blocked_cycles::no_mshrs          nan                       # average number of cycles each access was blocked
system.cpu.icache.avg_blocked_cycles::no_targets          nan                       # average number of cycles each access was blocked
system.cpu.icache.writebacks::writebacks      4112253                       # number of writebacks
system.cpu.icache.writebacks::total           4112253                       # number of writebacks
system.cpu.icache.ReadReq_mshr_misses::cpu.inst      4113492                       # number of ReadReq MSHR misses
system.cpu.icache.ReadReq_mshr_misses::total      4113492                       # number of ReadReq MSHR misses
system.cpu.icache.demand_mshr_misses::cpu.inst      4113492                       # number of demand (read+write) MSHR misses
[...]
system.l2.overall_avg_mshr_uncacheable_latency::total 120199.534884                       # average overall mshr uncacheable latency
system.membus.snoop_filter.tot_requests        126845                       # Total number of requests made to the snoop filter.
system.membus.snoop_filter.hit_single_requests        73416                       # Number of requests hitting in the snoop filter with a single holder of the requested data.
system.membus.snoop_filter.hit_multi_requests           27                       # Number of requests hitting in the snoop filter with multiple (>1) holders of the requested data.
system.membus.snoop_filter.tot_snoops               0                       # Total number of snoops made to the snoop filter.
system.membus.snoop_filter.hit_single_snoops            0                       # Number of snoops hitting in the snoop filter with a single holder of the requested data.
system.membus.snoop_filter.hit_multi_snoops            0                       # Number of snoops hitting in the snoop filter with multiple (>1) holders of the requested data.
system.membus.pwrStateResidencyTicks::UNDEFINED   7204271000                       # Cumulative time (in ticks) in various power states
system.membus.trans_dist::ReadReq                 610                       # Transaction distribution
system.membus.trans_dist::ReadResp               6453                       # Transaction distribution
system.membus.trans_dist::WriteReq                465                       # Transaction distribution
system.membus.trans_dist::WriteResp               465                       # Transaction distribution
system.membus.trans_dist::WritebackDirty        47755                       # Transaction distribution
system.membus.trans_dist::CleanEvict             5674                       # Transaction distribution
system.membus.trans_dist::UpgradeReq               19                       # Transaction distribution
system.membus.trans_dist::ReadExReq             22242                       # Transaction distribution
system.membus.trans_dist::ReadExResp            22242                       # Transaction distribution
system.membus.trans_dist::ReadSharedReq          5843                       # Transaction distribution
system.membus.trans_dist::InvalidateReq         45312                       # Transaction distribution
system.membus.trans_dist::InvalidateResp        19968                       # Transaction distribution
system.membus.pkt_count_system.iocache.mem_side::system.mem_ctrls.port        90678                       # Packet count per connected master and slave (bytes)
system.membus.pkt_count_system.iocache.mem_side::total        90678                       # Packet count per connected master and slave (bytes)
system.membus.pkt_count_system.l2.mem_side::system.bridge.slave         2150                       # Packet count per connected master and slave (bytes)
system.membus.pkt_count_system.l2.mem_side::system.mem_ctrls.port        64225                       # Packet count per connected master and slave (bytes)
system.membus.pkt_count_system.l2.mem_side::total        66375                       # Packet count per connected master and slave (bytes)
system.membus.pkt_count::total                 157053                       # Packet count per connected master and slave (bytes)
system.membus.pkt_size_system.iocache.mem_side::system.mem_ctrls.port       724992                       # Cumulative packet size per connected master and slave (bytes)
system.membus.pkt_size_system.iocache.mem_side::total       724992                       # Cumulative packet size per connected master and slave (bytes)
system.membus.pkt_size_system.l2.mem_side::system.bridge.slave         1743                       # Cumulative packet size per connected master and slave (bytes)
system.membus.pkt_size_system.l2.mem_side::system.mem_ctrls.port       488016                       # Cumulative packet size per connected master and slave (bytes)
system.membus.pkt_size_system.l2.mem_side::total       489759                       # Cumulative packet size per connected master and slave (bytes)
system.membus.pkt_size::total                 1214751                       # Cumulative packet size per connected master and slave (bytes)
system.membus.snoops                            19995                       # Total snoops (count)
system.membus.snoopTraffic                        432                       # Total snoop traffic (bytes)
system.membus.snoop_fanout::samples             74491                       # Request fanout histogram
system.membus.snoop_fanout::mean             0.268422                       # Request fanout histogram
system.membus.snoop_fanout::stdev            0.443141                       # Request fanout histogram
system.membus.snoop_fanout::underflows              0      0.00%      0.00% # Request fanout histogram
system.membus.snoop_fanout::0                   54496     73.16%     73.16% # Request fanout histogram
system.membus.snoop_fanout::1                   19995     26.84%    100.00% # Request fanout histogram
system.membus.snoop_fanout::2                       0      0.00%    100.00% # Request fanout histogram
system.membus.snoop_fanout::overflows               0      0.00%    100.00% # Request fanout histogram
system.membus.snoop_fanout::min_value               0                       # Request fanout histogram
system.membus.snoop_fanout::max_value               1                       # Request fanout histogram
system.membus.snoop_fanout::total               74491                       # Request fanout histogram
system.membus.reqLayer0.occupancy             1838500                       # Layer occupancy (ticks)
system.membus.reqLayer0.utilization               0.0                       # Layer utilization (%)
system.membus.reqLayer1.occupancy           174620652                       # Layer occupancy (ticks)
system.membus.reqLayer1.utilization               2.4                       # Layer utilization (%)
system.membus.respLayer1.occupancy           20815611                       # Layer occupancy (ticks)
system.membus.respLayer1.utilization              0.3                       # Layer utilization (%)
system.membus.respLayer2.occupancy           65476500                       # Layer occupancy (ticks)
system.membus.respLayer2.utilization              0.9                       # Layer utilization (%)
system.membus.badaddr_responder.pwrStateResidencyTicks::UNDEFINED   7204271000                       # Cumulative time (in ticks) in various power states
system.tol2bus.snoop_filter.tot_requests       398969                       # Total number of requests made to the snoop filter.
system.tol2bus.snoop_filter.hit_single_requests       199484                       # Number of requests hitting in the snoop filter with a single holder of the requested data.
system.tol2bus.snoop_filter.hit_multi_requests          365                       # Number of requests hitting in the snoop filter with multiple (>1) holders of the requested data.
system.tol2bus.snoop_filter.tot_snoops             51                       # Total number of snoops made to the snoop filter.
system.tol2bus.snoop_filter.hit_single_snoops           51                       # Number of snoops hitting in the snoop filter with a single holder of the requested data.
system.tol2bus.snoop_filter.hit_multi_snoops            0                       # Number of snoops hitting in the snoop filter with multiple (>1) holders of the requested data.
system.tol2bus.pwrStateResidencyTicks::UNDEFINED   7204271000                       # Cumulative time (in ticks) in various power states
system.tol2bus.trans_dist::ReadReq                610                       # Transaction distribution
system.tol2bus.trans_dist::ReadResp            143940                       # Transaction distribution
system.tol2bus.trans_dist::WriteReq               465                       # Transaction distribution
system.tol2bus.trans_dist::WriteResp              465                       # Transaction distribution
system.tol2bus.trans_dist::WritebackDirty        86052                       # Transaction distribution
system.tol2bus.trans_dist::WritebackClean        98713                       # Transaction distribution
system.tol2bus.trans_dist::CleanEvict           22803                       # Transaction distribution
system.tol2bus.trans_dist::UpgradeReq               6                       # Transaction distribution
system.tol2bus.trans_dist::UpgradeResp              6                       # Transaction distribution
system.tol2bus.trans_dist::ReadExReq            56170                       # Transaction distribution
system.tol2bus.trans_dist::ReadExResp           56170                       # Transaction distribution
system.tol2bus.trans_dist::ReadCleanReq         98720                       # Transaction distribution
system.tol2bus.trans_dist::ReadSharedReq        44622                       # Transaction distribution
system.tol2bus.trans_dist::InvalidateReq        19968                       # Transaction distribution
system.tol2bus.pkt_count_system.cpu.icache.mem_side::system.l2.cpu_side       296151                       # Packet count per connected master and slave (bytes)
system.tol2bus.pkt_count_system.cpu.dcache.mem_side::system.l2.cpu_side       304472                       # Packet count per connected master and slave (bytes)
system.tol2bus.pkt_count::total                600623                       # Packet count per connected master and slave (bytes)
system.tol2bus.pkt_size_system.cpu.icache.mem_side::system.l2.cpu_side      3158896                       # Cumulative packet size per connected master and slave (bytes)
system.tol2bus.pkt_size_system.cpu.dcache.mem_side::system.l2.cpu_side      2951967                       # Cumulative packet size per connected master and slave (bytes)
system.tol2bus.pkt_size::total                6110863                       # Cumulative packet size per connected master and slave (bytes)
system.tol2bus.snoops                           28102                       # Total snoops (count)
system.tol2bus.snoopTraffic                     39360                       # Total snoop traffic (bytes)
system.tol2bus.snoop_fanout::samples           228651                       # Request fanout histogram
system.tol2bus.snoop_fanout::mean            0.001819                       # Request fanout histogram
system.tol2bus.snoop_fanout::stdev           0.042615                       # Request fanout histogram
system.tol2bus.snoop_fanout::underflows             0      0.00%      0.00% # Request fanout histogram
system.tol2bus.snoop_fanout::0                 228235     99.82%     99.82% # Request fanout histogram
system.tol2bus.snoop_fanout::1                    416      0.18%    100.00% # Request fanout histogram
system.tol2bus.snoop_fanout::2                      0      0.00%    100.00% # Request fanout histogram
system.tol2bus.snoop_fanout::overflows              0      0.00%    100.00% # Request fanout histogram
system.tol2bus.snoop_fanout::min_value              0                       # Request fanout histogram
system.tol2bus.snoop_fanout::max_value              1                       # Request fanout histogram
system.tol2bus.snoop_fanout::total             228651                       # Request fanout histogram
system.tol2bus.reqLayer0.occupancy          291415500                       # Layer occupancy (ticks)
system.tol2bus.reqLayer0.utilization              4.0                       # Layer utilization (%)
system.tol2bus.snoopLayer0.occupancy            22485                       # Layer occupancy (ticks)
system.tol2bus.snoopLayer0.utilization            0.0                       # Layer utilization (%)
system.tol2bus.respLayer0.occupancy          98720000                       # Layer occupancy (ticks)
system.tol2bus.respLayer0.utilization             1.4                       # Layer utilization (%)
system.tol2bus.respLayer1.occupancy         101610500                       # Layer occupancy (ticks)
system.tol2bus.respLayer1.utilization             1.4                       # Layer utilization (%)
system.tsunami.backdoor.pwrStateResidencyTicks::UNDEFINED   7204271000                       # Cumulative time (in ticks) in various power states
system.tsunami.cchip.pwrStateResidencyTicks::UNDEFINED   7204271000                       # Cumulative time (in ticks) in various power states
system.tsunami.pchip.pwrStateResidencyTicks::UNDEFINED   7204271000                       # Cumulative time (in ticks) in various power states
system.tsunami.ethernet.pwrStateResidencyTicks::UNDEFINED   7204271000                       # Cumulative time (in ticks) in various power states
system.tsunami.ethernet.descDMAReads                0                       # Number of descriptors the device read w/ DMA
system.tsunami.ethernet.descDMAWrites               0                       # Number of descriptors the device wrote w/ DMA
system.tsunami.ethernet.descDmaReadBytes            0                       # number of descriptor bytes read w/ DMA
system.tsunami.ethernet.descDmaWriteBytes            0                       # number of descriptor bytes write w/ DMA
system.tsunami.ethernet.postedSwi                   0                       # number of software interrupts posted to CPU
system.tsunami.ethernet.coalescedSwi              nan                       # average number of Swi's coalesced into each post
system.tsunami.ethernet.totalSwi                    0                       # total number of Swi written to ISR
system.tsunami.ethernet.postedRxIdle                0                       # number of rxIdle interrupts posted to CPU
system.tsunami.ethernet.coalescedRxIdle           nan                       # average number of RxIdle's coalesced into each post
system.tsunami.ethernet.totalRxIdle                 0                       # total number of RxIdle written to ISR
system.tsunami.ethernet.postedRxOk                  0                       # number of RxOk interrupts posted to CPU
system.tsunami.ethernet.coalescedRxOk             nan                       # average number of RxOk's coalesced into each post
system.tsunami.ethernet.totalRxOk                   0                       # total number of RxOk written to ISR
system.tsunami.ethernet.postedRxDesc                0                       # number of RxDesc interrupts posted to CPU
system.tsunami.ethernet.coalescedRxDesc           nan                       # average number of RxDesc's coalesced into each post
system.tsunami.ethernet.totalRxDesc                 0                       # total number of RxDesc written to ISR
system.tsunami.ethernet.postedTxOk                  0                       # number of TxOk interrupts posted to CPU
system.tsunami.ethernet.coalescedTxOk             nan                       # average number of TxOk's coalesced into each post
system.tsunami.ethernet.totalTxOk                   0                       # total number of TxOk written to ISR
system.tsunami.ethernet.postedTxIdle                0                       # number of TxIdle interrupts posted to CPU
system.tsunami.ethernet.coalescedTxIdle           nan                       # average number of TxIdle's coalesced into each post
system.tsunami.ethernet.totalTxIdle                 0                       # total number of TxIdle written to ISR
system.tsunami.ethernet.postedTxDesc                0                       # number of TxDesc interrupts posted to CPU
system.tsunami.ethernet.coalescedTxDesc           nan                       # average number of TxDesc's coalesced into each post
system.tsunami.ethernet.totalTxDesc                 0                       # total number of TxDesc written to ISR
system.tsunami.ethernet.postedRxOrn                 0                       # number of RxOrn posted to CPU
system.tsunami.ethernet.coalescedRxOrn            nan                       # average number of RxOrn's coalesced into each post
system.tsunami.ethernet.totalRxOrn                  0                       # total number of RxOrn written to ISR
system.tsunami.ethernet.coalescedTotal            nan                       # average number of interrupts coalesced into each post
system.tsunami.ethernet.postedInterrupts            0                       # number of posts to CPU
system.tsunami.ethernet.droppedPackets              0                       # number of packets dropped
system.tsunami.fake_OROM.pwrStateResidencyTicks::UNDEFINED   7204271000                       # Cumulative time (in ticks) in various power states
system.tsunami.fake_ata0.pwrStateResidencyTicks::UNDEFINED   7204271000                       # Cumulative time (in ticks) in various power states
system.tsunami.fake_ata1.pwrStateResidencyTicks::UNDEFINED   7204271000                       # Cumulative time (in ticks) in various power states
system.tsunami.fake_pnp_addr.pwrStateResidencyTicks::UNDEFINED   7204271000                       # Cumulative time (in ticks) in various power states
system.tsunami.fake_pnp_read0.pwrStateResidencyTicks::UNDEFINED   7204271000                       # Cumulative time (in ticks) in various power states
system.tsunami.fake_pnp_read1.pwrStateResidencyTicks::UNDEFINED   7204271000                       # Cumulative time (in ticks) in various power states
system.tsunami.fake_pnp_read2.pwrStateResidencyTicks::UNDEFINED   7204271000                       # Cumulative time (in ticks) in various power states
system.tsunami.fake_pnp_read3.pwrStateResidencyTicks::UNDEFINED   7204271000                       # Cumulative time (in ticks) in various power states
system.tsunami.fake_pnp_read4.pwrStateResidencyTicks::UNDEFINED   7204271000                       # Cumulative time (in ticks) in various power states
system.tsunami.fake_pnp_read5.pwrStateResidencyTicks::UNDEFINED   7204271000                       # Cumulative time (in ticks) in various power states
system.tsunami.fake_pnp_read6.pwrStateResidencyTicks::UNDEFINED   7204271000                       # Cumulative time (in ticks) in various power states
system.tsunami.fake_pnp_read7.pwrStateResidencyTicks::UNDEFINED   7204271000                       # Cumulative time (in ticks) in various power states
system.tsunami.fake_pnp_write.pwrStateResidencyTicks::UNDEFINED   7204271000                       # Cumulative time (in ticks) in various power states
system.tsunami.fake_ppc.pwrStateResidencyTicks::UNDEFINED   7204271000                       # Cumulative time (in ticks) in various power states
system.tsunami.fake_sm_chip.pwrStateResidencyTicks::UNDEFINED   7204271000                       # Cumulative time (in ticks) in various power states
system.tsunami.fake_uart1.pwrStateResidencyTicks::UNDEFINED   7204271000                       # Cumulative time (in ticks) in various power states
system.tsunami.fake_uart2.pwrStateResidencyTicks::UNDEFINED   7204271000                       # Cumulative time (in ticks) in various power states
system.tsunami.fake_uart3.pwrStateResidencyTicks::UNDEFINED   7204271000                       # Cumulative time (in ticks) in various power states
system.tsunami.fake_uart4.pwrStateResidencyTicks::UNDEFINED   7204271000                       # Cumulative time (in ticks) in various power states
system.tsunami.fb.pwrStateResidencyTicks::UNDEFINED   7204271000                       # Cumulative time (in ticks) in various power states
system.tsunami.ide.pwrStateResidencyTicks::UNDEFINED   7204271000                       # Cumulative time (in ticks) in various power states
system.tsunami.io.pwrStateResidencyTicks::UNDEFINED   7204271000                       # Cumulative time (in ticks) in various power states
system.tsunami.uart.pwrStateResidencyTicks::UNDEFINED   7204271000                       # Cumulative time (in ticks) in various power states

---------- End Simulation Statistics   ----------
