---------- Begin Simulation Statistics ----------
sim_seconds                                  0.007204                       # Number of seconds simulated
sim_ticks                                  7204271000                       # Number of ticks simulated
system.cpu.dcache.tags.replacements            100765                       # number of replacements
system.cpu.dcache.tags.total_refs              498275                       # Total number of references to valid blocks.
system.cpu.dcache.tags.avg_refs              4.846420                       # Average number of references to valid blocks.
system.cpu.dcache.tags.occ_percent::total            1                       # Average percentage of cache occupancy
system.cpu.dcache.tags.data_accesses           695281                       # Number of data accesses
system.cpu.dcache.ReadReq_hits::total          284943                       # number of ReadReq hits
system.cpu.dcache.WriteReq_hits::total         197634                       # number of WriteReq hits
system.cpu.dcache.overall_hits::total          482577                       # number of overall hits
system.cpu.dcache.ReadReq_misses::total         43305                       # number of ReadReq misses
system.cpu.dcache.overall_misses::total         99481                       # number of overall misses
system.cpu.dcache.ReadReq_miss_rate::total     0.131928                       # miss rate for ReadReq accesses
system.cpu.dcache.WriteReq_miss_rate::total     0.221331                       # miss rate for WriteReq accesses
system.cpu.dcache.overall_miss_rate::total     0.170913                       # miss rate for overall accesses
system.cpu.dcache.writebacks::total             83609                       # number of writebacks
system.l2.tags.replacements                      8090                       # number of replacements
system.l2.tags.total_refs                     4680841                       # Total number of references to valid blocks.
system.l2.tags.avg_refs                     63.575924                       # Average number of references to valid blocks.
system.l2.tags.occ_percent::total            0.881408                       # Average percentage of cache occupancy
system.l2.tags.data_accesses                 51085082                       # Number of data accesses
system.l2.overall_hits::total                  171412                       # number of overall hits
system.l2.overall_misses::total                 28071                       # number of overall misses
system.l2.overall_miss_rate::total           0.140719                       # miss rate for overall accesses
system.l2.writebacks::total                      2443                       # number of writebacks
---------- End Simulation Statistics   ----------
